
---------- Begin Simulation Statistics ----------
simSeconds                                   0.003147                       # Number of seconds simulated (Second)
simTicks                                   3147285000                       # Number of ticks simulated (Tick)
finalTick                                 12996689000                       # Number of ticks from beginning of simulation (restored from checkpoints and never reset) (Tick)
simFreq                                  1000000000000                       # The number of ticks per simulated second ((Tick/Second))
hostSeconds                                      9.54                       # Real time elapsed on the host (Second)
hostTickRate                                329837799                       # The number of ticks simulated per host second (ticks/s) ((Tick/Second))
hostMemory                                    9646240                       # Number of bytes of host memory used (Byte)
simInsts                                      6451886                       # Number of instructions simulated (Count)
simOps                                       12338249                       # Number of ops (including micro ops) simulated (Count)
hostInstRate                                   676156                       # Simulator instruction rate (inst/s) ((Count/Second))
hostOpRate                                    1293044                       # Simulator op (including micro ops) rate (op/s) ((Count/Second))
system.caches.delayHistogram::bucket_size           16                       # delay histogram for all message (Unspecified)
system.caches.delayHistogram::max_bucket          159                       # delay histogram for all message (Unspecified)
system.caches.delayHistogram::samples          610340                       # delay histogram for all message (Unspecified)
system.caches.delayHistogram::mean           0.585867                       # delay histogram for all message (Unspecified)
system.caches.delayHistogram::stdev          2.357782                       # delay histogram for all message (Unspecified)
system.caches.delayHistogram             |      607071     99.46%     99.46% |        2804      0.46%     99.92% |         403      0.07%     99.99% |          56      0.01%    100.00% |           3      0.00%    100.00% |           3      0.00%    100.00% |           0      0.00%    100.00% |           0      0.00%    100.00% |           0      0.00%    100.00% |           0      0.00%    100.00% # delay histogram for all message (Unspecified)
system.caches.delayHistogram::total            610340                       # delay histogram for all message (Unspecified)
system.caches.m_outstandReqHistSeqr::bucket_size            1                       (Unspecified)
system.caches.m_outstandReqHistSeqr::max_bucket            9                       (Unspecified)
system.caches.m_outstandReqHistSeqr::samples      1048591                       (Unspecified)
system.caches.m_outstandReqHistSeqr::mean     1.000042                       (Unspecified)
system.caches.m_outstandReqHistSeqr::gmean     1.000025                       (Unspecified)
system.caches.m_outstandReqHistSeqr::stdev     0.008401                       (Unspecified)
system.caches.m_outstandReqHistSeqr      |           0      0.00%      0.00% |     1048561    100.00%    100.00% |          17      0.00%    100.00% |          12      0.00%    100.00% |           1      0.00%    100.00% |           0      0.00%    100.00% |           0      0.00%    100.00% |           0      0.00%    100.00% |           0      0.00%    100.00% |           0      0.00%    100.00% (Unspecified)
system.caches.m_outstandReqHistSeqr::total      1048591                       (Unspecified)
system.caches.m_latencyHistSeqr::bucket_size           32                       (Unspecified)
system.caches.m_latencyHistSeqr::max_bucket          319                       (Unspecified)
system.caches.m_latencyHistSeqr::samples      1048589                       (Unspecified)
system.caches.m_latencyHistSeqr::mean        1.001636                       (Unspecified)
system.caches.m_latencyHistSeqr::gmean       1.000093                       (Unspecified)
system.caches.m_latencyHistSeqr::stdev       0.450270                       (Unspecified)
system.caches.m_latencyHistSeqr          |     1048571    100.00%    100.00% |          12      0.00%    100.00% |           2      0.00%    100.00% |           0      0.00%    100.00% |           3      0.00%    100.00% |           0      0.00%    100.00% |           0      0.00%    100.00% |           0      0.00%    100.00% |           0      0.00%    100.00% |           1      0.00%    100.00% (Unspecified)
system.caches.m_latencyHistSeqr::total        1048589                       (Unspecified)
system.caches.m_hitLatencyHistSeqr::bucket_size            1                       (Unspecified)
system.caches.m_hitLatencyHistSeqr::max_bucket            9                       (Unspecified)
system.caches.m_hitLatencyHistSeqr::samples      1048565                       (Unspecified)
system.caches.m_hitLatencyHistSeqr::mean            1                       (Unspecified)
system.caches.m_hitLatencyHistSeqr::gmean            1                       (Unspecified)
system.caches.m_hitLatencyHistSeqr       |           0      0.00%      0.00% |     1048565    100.00%    100.00% |           0      0.00%    100.00% |           0      0.00%    100.00% |           0      0.00%    100.00% |           0      0.00%    100.00% |           0      0.00%    100.00% |           0      0.00%    100.00% |           0      0.00%    100.00% |           0      0.00%    100.00% (Unspecified)
system.caches.m_hitLatencyHistSeqr::total      1048565                       (Unspecified)
system.caches.m_missLatencyHistSeqr::bucket_size           32                       (Unspecified)
system.caches.m_missLatencyHistSeqr::max_bucket          319                       (Unspecified)
system.caches.m_missLatencyHistSeqr::samples           24                       (Unspecified)
system.caches.m_missLatencyHistSeqr::mean    72.458333                       (Unspecified)
system.caches.m_missLatencyHistSeqr::gmean    58.525920                       (Unspecified)
system.caches.m_missLatencyHistSeqr::stdev    62.570294                       (Unspecified)
system.caches.m_missLatencyHistSeqr      |           6     25.00%     25.00% |          12     50.00%     75.00% |           2      8.33%     83.33% |           0      0.00%     83.33% |           3     12.50%     95.83% |           0      0.00%     95.83% |           0      0.00%     95.83% |           0      0.00%     95.83% |           0      0.00%     95.83% |           1      4.17%    100.00% (Unspecified)
system.caches.m_missLatencyHistSeqr::total           24                       (Unspecified)
system.caches.delayVCHist.vnet_1::bucket_size            4                       # delay histogram for vnet_1 (Unspecified)
system.caches.delayVCHist.vnet_1::max_bucket           39                       # delay histogram for vnet_1 (Unspecified)
system.caches.delayVCHist.vnet_1::samples       305185                       # delay histogram for vnet_1 (Unspecified)
system.caches.delayVCHist.vnet_1::mean       0.172492                       # delay histogram for vnet_1 (Unspecified)
system.caches.delayVCHist.vnet_1::stdev      1.059064                       # delay histogram for vnet_1 (Unspecified)
system.caches.delayVCHist.vnet_1         |      297754     97.57%     97.57% |        4676      1.53%     99.10% |        2509      0.82%     99.92% |         145      0.05%     99.97% |          94      0.03%    100.00% |           4      0.00%    100.00% |           2      0.00%    100.00% |           1      0.00%    100.00% |           0      0.00%    100.00% |           0      0.00%    100.00% # delay histogram for vnet_1 (Unspecified)
system.caches.delayVCHist.vnet_1::total        305185                       # delay histogram for vnet_1 (Unspecified)
system.caches.delayVCHist.vnet_2::bucket_size           16                       # delay histogram for vnet_2 (Unspecified)
system.caches.delayVCHist.vnet_2::max_bucket          159                       # delay histogram for vnet_2 (Unspecified)
system.caches.delayVCHist.vnet_2::samples       305155                       # delay histogram for vnet_2 (Unspecified)
system.caches.delayVCHist.vnet_2::mean       0.999282                       # delay histogram for vnet_2 (Unspecified)
system.caches.delayVCHist.vnet_2::stdev      3.107299                       # delay histogram for vnet_2 (Unspecified)
system.caches.delayVCHist.vnet_2         |      301987     98.96%     98.96% |        2703      0.89%     99.85% |         403      0.13%     99.98% |          56      0.02%    100.00% |           3      0.00%    100.00% |           3      0.00%    100.00% |           0      0.00%    100.00% |           0      0.00%    100.00% |           0      0.00%    100.00% |           0      0.00%    100.00% # delay histogram for vnet_2 (Unspecified)
system.caches.delayVCHist.vnet_2::total        305155                       # delay histogram for vnet_2 (Unspecified)
system.caches.L1Cache_Controller.Load         1570789      0.00%      0.00% (Unspecified)
system.caches.L1Cache_Controller.Ifetch        317527      0.00%      0.00% (Unspecified)
system.caches.L1Cache_Controller.Store         208724      0.00%      0.00% (Unspecified)
system.caches.L1Cache_Controller.Data          305185      0.00%      0.00% (Unspecified)
system.caches.L1Cache_Controller.Replacement       305155      0.00%      0.00% (Unspecified)
system.caches.L1Cache_Controller.Writeback_Ack       305155      0.00%      0.00% (Unspecified)
system.caches.L1Cache_Controller.I.Load        144928      0.00%      0.00% (Unspecified)
system.caches.L1Cache_Controller.I.Ifetch       125282      0.00%      0.00% (Unspecified)
system.caches.L1Cache_Controller.I.Store        34977      0.00%      0.00% (Unspecified)
system.caches.L1Cache_Controller.M.Load       1425861      0.00%      0.00% (Unspecified)
system.caches.L1Cache_Controller.M.Ifetch       192245      0.00%      0.00% (Unspecified)
system.caches.L1Cache_Controller.M.Store       173747      0.00%      0.00% (Unspecified)
system.caches.L1Cache_Controller.M.Replacement       305155      0.00%      0.00% (Unspecified)
system.caches.L1Cache_Controller.MI.Writeback_Ack       305155      0.00%      0.00% (Unspecified)
system.caches.L1Cache_Controller.IS.Data       270208      0.00%      0.00% (Unspecified)
system.caches.L1Cache_Controller.IM.Data        34977      0.00%      0.00% (Unspecified)
system.caches.Directory_Controller.GETX        305187      0.00%      0.00% (Unspecified)
system.caches.Directory_Controller.PUTX        305155      0.00%      0.00% (Unspecified)
system.caches.Directory_Controller.Memory_Data       305185      0.00%      0.00% (Unspecified)
system.caches.Directory_Controller.Memory_Ack       305155      0.00%      0.00% (Unspecified)
system.caches.Directory_Controller.I.GETX       305187      0.00%      0.00% (Unspecified)
system.caches.Directory_Controller.M.PUTX       305155      0.00%      0.00% (Unspecified)
system.caches.Directory_Controller.IM.Memory_Data       305185      0.00%      0.00% (Unspecified)
system.caches.Directory_Controller.MI.Memory_Ack       305155      0.00%      0.00% (Unspecified)
system.caches.MachineType.Directory.miss_mach_latency_hist_seqr::bucket_size           32                       (Unspecified)
system.caches.MachineType.Directory.miss_mach_latency_hist_seqr::max_bucket          319                       (Unspecified)
system.caches.MachineType.Directory.miss_mach_latency_hist_seqr::samples           24                       (Unspecified)
system.caches.MachineType.Directory.miss_mach_latency_hist_seqr::mean    72.458333                       (Unspecified)
system.caches.MachineType.Directory.miss_mach_latency_hist_seqr::gmean    58.525920                       (Unspecified)
system.caches.MachineType.Directory.miss_mach_latency_hist_seqr::stdev    62.570294                       (Unspecified)
system.caches.MachineType.Directory.miss_mach_latency_hist_seqr |           6     25.00%     25.00% |          12     50.00%     75.00% |           2      8.33%     83.33% |           0      0.00%     83.33% |           3     12.50%     95.83% |           0      0.00%     95.83% |           0      0.00%     95.83% |           0      0.00%     95.83% |           0      0.00%     95.83% |           1      4.17%    100.00% (Unspecified)
system.caches.MachineType.Directory.miss_mach_latency_hist_seqr::total           24                       (Unspecified)
system.caches.MachineType.Directory.incomplete_times_seqr       305184                       (Unspecified)
system.caches.RequestType.LD.latency_hist_seqr::bucket_size           32                       (Unspecified)
system.caches.RequestType.LD.latency_hist_seqr::max_bucket          319                       (Unspecified)
system.caches.RequestType.LD.latency_hist_seqr::samples      1048576                       (Unspecified)
system.caches.RequestType.LD.latency_hist_seqr::mean     1.001473                       (Unspecified)
system.caches.RequestType.LD.latency_hist_seqr::gmean     1.000085                       (Unspecified)
system.caches.RequestType.LD.latency_hist_seqr::stdev     0.427258                       (Unspecified)
system.caches.RequestType.LD.latency_hist_seqr |     1048559    100.00%    100.00% |          12      0.00%    100.00% |           2      0.00%    100.00% |           0      0.00%    100.00% |           2      0.00%    100.00% |           0      0.00%    100.00% |           0      0.00%    100.00% |           0      0.00%    100.00% |           0      0.00%    100.00% |           1      0.00%    100.00% (Unspecified)
system.caches.RequestType.LD.latency_hist_seqr::total      1048576                       (Unspecified)
system.caches.RequestType.LD.hit_latency_hist_seqr::bucket_size            1                       (Unspecified)
system.caches.RequestType.LD.hit_latency_hist_seqr::max_bucket            9                       (Unspecified)
system.caches.RequestType.LD.hit_latency_hist_seqr::samples      1048554                       (Unspecified)
system.caches.RequestType.LD.hit_latency_hist_seqr::mean            1                       (Unspecified)
system.caches.RequestType.LD.hit_latency_hist_seqr::gmean            1                       (Unspecified)
system.caches.RequestType.LD.hit_latency_hist_seqr |           0      0.00%      0.00% |     1048554    100.00%    100.00% |           0      0.00%    100.00% |           0      0.00%    100.00% |           0      0.00%    100.00% |           0      0.00%    100.00% |           0      0.00%    100.00% |           0      0.00%    100.00% |           0      0.00%    100.00% |           0      0.00%    100.00% (Unspecified)
system.caches.RequestType.LD.hit_latency_hist_seqr::total      1048554                       (Unspecified)
system.caches.RequestType.LD.miss_latency_hist_seqr::bucket_size           32                       (Unspecified)
system.caches.RequestType.LD.miss_latency_hist_seqr::max_bucket          319                       (Unspecified)
system.caches.RequestType.LD.miss_latency_hist_seqr::samples           22                       (Unspecified)
system.caches.RequestType.LD.miss_latency_hist_seqr::mean    71.227273                       (Unspecified)
system.caches.RequestType.LD.miss_latency_hist_seqr::gmean    58.093691                       (Unspecified)
system.caches.RequestType.LD.miss_latency_hist_seqr::stdev    62.836850                       (Unspecified)
system.caches.RequestType.LD.miss_latency_hist_seqr |           5     22.73%     22.73% |          12     54.55%     77.27% |           2      9.09%     86.36% |           0      0.00%     86.36% |           2      9.09%     95.45% |           0      0.00%     95.45% |           0      0.00%     95.45% |           0      0.00%     95.45% |           0      0.00%     95.45% |           1      4.55%    100.00% (Unspecified)
system.caches.RequestType.LD.miss_latency_hist_seqr::total           22                       (Unspecified)
system.caches.RequestType.ST.latency_hist_seqr::bucket_size            1                       (Unspecified)
system.caches.RequestType.ST.latency_hist_seqr::max_bucket            9                       (Unspecified)
system.caches.RequestType.ST.latency_hist_seqr::samples            1                       (Unspecified)
system.caches.RequestType.ST.latency_hist_seqr::mean            1                       (Unspecified)
system.caches.RequestType.ST.latency_hist_seqr::gmean            1                       (Unspecified)
system.caches.RequestType.ST.latency_hist_seqr::stdev          nan                       (Unspecified)
system.caches.RequestType.ST.latency_hist_seqr |           0      0.00%      0.00% |           1    100.00%    100.00% |           0      0.00%    100.00% |           0      0.00%    100.00% |           0      0.00%    100.00% |           0      0.00%    100.00% |           0      0.00%    100.00% |           0      0.00%    100.00% |           0      0.00%    100.00% |           0      0.00%    100.00% (Unspecified)
system.caches.RequestType.ST.latency_hist_seqr::total            1                       (Unspecified)
system.caches.RequestType.ST.hit_latency_hist_seqr::bucket_size            1                       (Unspecified)
system.caches.RequestType.ST.hit_latency_hist_seqr::max_bucket            9                       (Unspecified)
system.caches.RequestType.ST.hit_latency_hist_seqr::samples            1                       (Unspecified)
system.caches.RequestType.ST.hit_latency_hist_seqr::mean            1                       (Unspecified)
system.caches.RequestType.ST.hit_latency_hist_seqr::gmean            1                       (Unspecified)
system.caches.RequestType.ST.hit_latency_hist_seqr::stdev          nan                       (Unspecified)
system.caches.RequestType.ST.hit_latency_hist_seqr |           0      0.00%      0.00% |           1    100.00%    100.00% |           0      0.00%    100.00% |           0      0.00%    100.00% |           0      0.00%    100.00% |           0      0.00%    100.00% |           0      0.00%    100.00% |           0      0.00%    100.00% |           0      0.00%    100.00% |           0      0.00%    100.00% (Unspecified)
system.caches.RequestType.ST.hit_latency_hist_seqr::total            1                       (Unspecified)
system.caches.RequestType.IFETCH.latency_hist_seqr::bucket_size           16                       (Unspecified)
system.caches.RequestType.IFETCH.latency_hist_seqr::max_bucket          159                       (Unspecified)
system.caches.RequestType.IFETCH.latency_hist_seqr::samples           12                       (Unspecified)
system.caches.RequestType.IFETCH.latency_hist_seqr::mean    15.166667                       (Unspecified)
system.caches.RequestType.IFETCH.latency_hist_seqr::gmean     1.997377                       (Unspecified)
system.caches.RequestType.IFETCH.latency_hist_seqr::stdev    41.307788                       (Unspecified)
system.caches.RequestType.IFETCH.latency_hist_seqr |          10     83.33%     83.33% |           1      8.33%     91.67% |           0      0.00%     91.67% |           0      0.00%     91.67% |           0      0.00%     91.67% |           0      0.00%     91.67% |           0      0.00%     91.67% |           0      0.00%     91.67% |           0      0.00%     91.67% |           1      8.33%    100.00% (Unspecified)
system.caches.RequestType.IFETCH.latency_hist_seqr::total           12                       (Unspecified)
system.caches.RequestType.IFETCH.hit_latency_hist_seqr::bucket_size            1                       (Unspecified)
system.caches.RequestType.IFETCH.hit_latency_hist_seqr::max_bucket            9                       (Unspecified)
system.caches.RequestType.IFETCH.hit_latency_hist_seqr::samples           10                       (Unspecified)
system.caches.RequestType.IFETCH.hit_latency_hist_seqr::mean            1                       (Unspecified)
system.caches.RequestType.IFETCH.hit_latency_hist_seqr::gmean            1                       (Unspecified)
system.caches.RequestType.IFETCH.hit_latency_hist_seqr |           0      0.00%      0.00% |          10    100.00%    100.00% |           0      0.00%    100.00% |           0      0.00%    100.00% |           0      0.00%    100.00% |           0      0.00%    100.00% |           0      0.00%    100.00% |           0      0.00%    100.00% |           0      0.00%    100.00% |           0      0.00%    100.00% (Unspecified)
system.caches.RequestType.IFETCH.hit_latency_hist_seqr::total           10                       (Unspecified)
system.caches.RequestType.IFETCH.miss_latency_hist_seqr::bucket_size           16                       (Unspecified)
system.caches.RequestType.IFETCH.miss_latency_hist_seqr::max_bucket          159                       (Unspecified)
system.caches.RequestType.IFETCH.miss_latency_hist_seqr::samples            2                       (Unspecified)
system.caches.RequestType.IFETCH.miss_latency_hist_seqr::mean           86                       (Unspecified)
system.caches.RequestType.IFETCH.miss_latency_hist_seqr::gmean    63.498031                       (Unspecified)
system.caches.RequestType.IFETCH.miss_latency_hist_seqr::stdev    82.024387                       (Unspecified)
system.caches.RequestType.IFETCH.miss_latency_hist_seqr |           0      0.00%      0.00% |           1     50.00%     50.00% |           0      0.00%     50.00% |           0      0.00%     50.00% |           0      0.00%     50.00% |           0      0.00%     50.00% |           0      0.00%     50.00% |           0      0.00%     50.00% |           0      0.00%     50.00% |           1     50.00%    100.00% (Unspecified)
system.caches.RequestType.IFETCH.miss_latency_hist_seqr::total            2                       (Unspecified)
system.caches.RequestTypeMachineType.LD.Directory.miss_type_mach_latency_hist_seqr::bucket_size           32                       (Unspecified)
system.caches.RequestTypeMachineType.LD.Directory.miss_type_mach_latency_hist_seqr::max_bucket          319                       (Unspecified)
system.caches.RequestTypeMachineType.LD.Directory.miss_type_mach_latency_hist_seqr::samples           22                       (Unspecified)
system.caches.RequestTypeMachineType.LD.Directory.miss_type_mach_latency_hist_seqr::mean    71.227273                       (Unspecified)
system.caches.RequestTypeMachineType.LD.Directory.miss_type_mach_latency_hist_seqr::gmean    58.093691                       (Unspecified)
system.caches.RequestTypeMachineType.LD.Directory.miss_type_mach_latency_hist_seqr::stdev    62.836850                       (Unspecified)
system.caches.RequestTypeMachineType.LD.Directory.miss_type_mach_latency_hist_seqr |           5     22.73%     22.73% |          12     54.55%     77.27% |           2      9.09%     86.36% |           0      0.00%     86.36% |           2      9.09%     95.45% |           0      0.00%     95.45% |           0      0.00%     95.45% |           0      0.00%     95.45% |           0      0.00%     95.45% |           1      4.55%    100.00% (Unspecified)
system.caches.RequestTypeMachineType.LD.Directory.miss_type_mach_latency_hist_seqr::total           22                       (Unspecified)
system.caches.RequestTypeMachineType.IFETCH.Directory.miss_type_mach_latency_hist_seqr::bucket_size           16                       (Unspecified)
system.caches.RequestTypeMachineType.IFETCH.Directory.miss_type_mach_latency_hist_seqr::max_bucket          159                       (Unspecified)
system.caches.RequestTypeMachineType.IFETCH.Directory.miss_type_mach_latency_hist_seqr::samples            2                       (Unspecified)
system.caches.RequestTypeMachineType.IFETCH.Directory.miss_type_mach_latency_hist_seqr::mean           86                       (Unspecified)
system.caches.RequestTypeMachineType.IFETCH.Directory.miss_type_mach_latency_hist_seqr::gmean    63.498031                       (Unspecified)
system.caches.RequestTypeMachineType.IFETCH.Directory.miss_type_mach_latency_hist_seqr::stdev    82.024387                       (Unspecified)
system.caches.RequestTypeMachineType.IFETCH.Directory.miss_type_mach_latency_hist_seqr |           0      0.00%      0.00% |           1     50.00%     50.00% |           0      0.00%     50.00% |           0      0.00%     50.00% |           0      0.00%     50.00% |           0      0.00%     50.00% |           0      0.00%     50.00% |           0      0.00%     50.00% |           0      0.00%     50.00% |           1     50.00%    100.00% (Unspecified)
system.caches.RequestTypeMachineType.IFETCH.Directory.miss_type_mach_latency_hist_seqr::total            2                       (Unspecified)
system.caches.controllers0.delayHistogram::samples       610340                       # delay_histogram (Unspecified)
system.caches.controllers0.delayHistogram::mean     0.585867                       # delay_histogram (Unspecified)
system.caches.controllers0.delayHistogram::stdev     2.357782                       # delay_histogram (Unspecified)
system.caches.controllers0.delayHistogram::0-15       607071     99.46%     99.46% # delay_histogram (Unspecified)
system.caches.controllers0.delayHistogram::16-31         2804      0.46%     99.92% # delay_histogram (Unspecified)
system.caches.controllers0.delayHistogram::32-47          403      0.07%     99.99% # delay_histogram (Unspecified)
system.caches.controllers0.delayHistogram::48-63           56      0.01%    100.00% # delay_histogram (Unspecified)
system.caches.controllers0.delayHistogram::64-79            3      0.00%    100.00% # delay_histogram (Unspecified)
system.caches.controllers0.delayHistogram::80-95            3      0.00%    100.00% # delay_histogram (Unspecified)
system.caches.controllers0.delayHistogram::total       610340                       # delay_histogram (Unspecified)
system.caches.controllers0.cacheMemory.m_demand_hits      1791853                       # Number of cache demand hits (Unspecified)
system.caches.controllers0.cacheMemory.m_demand_misses       305187                       # Number of cache demand misses (Unspecified)
system.caches.controllers0.cacheMemory.m_demand_accesses      2097040                       # Number of cache demand accesses (Unspecified)
system.caches.controllers0.forwardToCache.m_buf_msgs     0.023479                       # Average number of messages in buffer (Unspecified)
system.caches.controllers0.forwardToCache.m_stall_time  5262.414835                       # Average number of cycles messages are stalled in this MB (Unspecified)
system.caches.controllers0.mandatoryQueue.m_buf_msgs     0.198560                       # Average number of messages in buffer (Unspecified)
system.caches.controllers0.mandatoryQueue.m_stall_time  1317.920203                       # Average number of cycles messages are stalled in this MB (Unspecified)
system.caches.controllers0.power_state.pwrStateResidencyTicks::UNDEFINED  12996689000                       # Cumulative time (in ticks) in various power states (Tick)
system.caches.controllers0.requestFromCache.m_buf_msgs     0.093923                       # Average number of messages in buffer (Unspecified)
system.caches.controllers0.requestFromCache.m_stall_time  1999.999538                       # Average number of cycles messages are stalled in this MB (Unspecified)
system.caches.controllers0.responseToCache.m_buf_msgs     0.023482                       # Average number of messages in buffer (Unspecified)
system.caches.controllers0.responseToCache.m_stall_time  5052.429815                       # Average number of cycles messages are stalled in this MB (Unspecified)
system.caches.controllers1.forwardFromDir.m_buf_msgs     0.023479                       # Average number of messages in buffer (Unspecified)
system.caches.controllers1.forwardFromDir.m_stall_time   999.935445                       # Average number of cycles messages are stalled in this MB (Unspecified)
system.caches.controllers1.power_state.pwrStateResidencyTicks::UNDEFINED  12996689000                       # Cumulative time (in ticks) in various power states (Tick)
system.caches.controllers1.requestToDir.m_buf_msgs     0.046961                       # Average number of messages in buffer (Unspecified)
system.caches.controllers1.requestToDir.m_stall_time 10523.680916                       # Average number of cycles messages are stalled in this MB (Unspecified)
system.caches.controllers1.requestToMemory.m_buf_msgs     0.047354                       # Average number of messages in buffer (Unspecified)
system.caches.controllers1.requestToMemory.m_stall_time  1001.832390                       # Average number of cycles messages are stalled in this MB (Unspecified)
system.caches.controllers1.responseFromDir.m_buf_msgs     0.023482                       # Average number of messages in buffer (Unspecified)
system.caches.controllers1.responseFromDir.m_stall_time   999.994691                       # Average number of cycles messages are stalled in this MB (Unspecified)
system.caches.controllers1.responseFromMemory.m_buf_msgs     0.053355                       # Average number of messages in buffer (Unspecified)
system.caches.controllers1.responseFromMemory.m_stall_time   999.994768                       # Average number of cycles messages are stalled in this MB (Unspecified)
system.caches.network.msg_count.Control        610374                       (Unspecified)
system.caches.network.msg_byte.Control        4882992                       (Unspecified)
system.caches.network.msg_count.Data           610310                       (Unspecified)
system.caches.network.msg_byte.Data          43942320                       (Unspecified)
system.caches.network.msg_count.Response_Data       610370                       (Unspecified)
system.caches.network.msg_byte.Response_Data     43946640                       (Unspecified)
system.caches.network.msg_count.Writeback_Control       610310                       (Unspecified)
system.caches.network.msg_byte.Writeback_Control      4882480                       (Unspecified)
system.caches.network.int_link_buffers2.m_buf_msgs     0.000017                       # Average number of messages in buffer (Unspecified)
system.caches.network.int_link_buffers2.m_stall_time  7999.877990                       # Average number of cycles messages are stalled in this MB (Unspecified)
system.caches.network.int_link_buffers8.m_buf_msgs     0.000008                       # Average number of messages in buffer (Unspecified)
system.caches.network.int_link_buffers8.m_stall_time         3000                       # Average number of cycles messages are stalled in this MB (Unspecified)
system.caches.network.int_link_buffers9.m_buf_msgs     0.000008                       # Average number of messages in buffer (Unspecified)
system.caches.network.int_link_buffers9.m_stall_time         3000                       # Average number of cycles messages are stalled in this MB (Unspecified)
system.caches.network.power_state.pwrStateResidencyTicks::UNDEFINED  12996689000                       # Cumulative time (in ticks) in various power states (Tick)
system.caches.network.routers0.percent_links_utilized     0.003988                       (Unspecified)
system.caches.network.routers0.msg_count.Control::2       305187                       (Unspecified)
system.caches.network.routers0.msg_bytes.Control::2      2441496                       (Unspecified)
system.caches.network.routers0.msg_count.Data::2       305155                       (Unspecified)
system.caches.network.routers0.msg_bytes.Data::2     21971160                       (Unspecified)
system.caches.network.routers0.msg_count.Response_Data::4       305185                       (Unspecified)
system.caches.network.routers0.msg_bytes.Response_Data::4     21973320                       (Unspecified)
system.caches.network.routers0.msg_count.Writeback_Control::3       305155                       (Unspecified)
system.caches.network.routers0.msg_bytes.Writeback_Control::3      2441240                       (Unspecified)
system.caches.network.routers0.port_buffers3.m_buf_msgs     0.023479                       # Average number of messages in buffer (Unspecified)
system.caches.network.routers0.port_buffers3.m_stall_time  4262.480005                       # Average number of cycles messages are stalled in this MB (Unspecified)
system.caches.network.routers0.port_buffers4.m_buf_msgs     0.023482                       # Average number of messages in buffer (Unspecified)
system.caches.network.routers0.port_buffers4.m_stall_time  4052.435740                       # Average number of cycles messages are stalled in this MB (Unspecified)
system.caches.network.routers0.port_buffers7.m_buf_msgs     0.203064                       # Average number of messages in buffer (Unspecified)
system.caches.network.routers0.port_buffers7.m_stall_time  7523.684148                       # Average number of cycles messages are stalled in this MB (Unspecified)
system.caches.network.routers0.power_state.pwrStateResidencyTicks::UNDEFINED  12996689000                       # Cumulative time (in ticks) in various power states (Tick)
system.caches.network.routers0.throttle00.link_utilization     0.003845                       (Unspecified)
system.caches.network.routers0.throttle00.msg_count.Response_Data::4       305185                       (Unspecified)
system.caches.network.routers0.throttle00.msg_bytes.Response_Data::4     21973320                       (Unspecified)
system.caches.network.routers0.throttle00.msg_count.Writeback_Control::3       305155                       (Unspecified)
system.caches.network.routers0.throttle00.msg_bytes.Writeback_Control::3      2441240                       (Unspecified)
system.caches.network.routers0.throttle01.link_utilization     0.004131                       (Unspecified)
system.caches.network.routers0.throttle01.msg_count.Control::2       305187                       (Unspecified)
system.caches.network.routers0.throttle01.msg_bytes.Control::2      2441496                       (Unspecified)
system.caches.network.routers0.throttle01.msg_count.Data::2       305155                       (Unspecified)
system.caches.network.routers0.throttle01.msg_bytes.Data::2     21971160                       (Unspecified)
system.caches.network.routers1.percent_links_utilized     0.003988                       (Unspecified)
system.caches.network.routers1.msg_count.Control::2       305187                       (Unspecified)
system.caches.network.routers1.msg_bytes.Control::2      2441496                       (Unspecified)
system.caches.network.routers1.msg_count.Data::2       305155                       (Unspecified)
system.caches.network.routers1.msg_bytes.Data::2     21971160                       (Unspecified)
system.caches.network.routers1.msg_count.Response_Data::4       305185                       (Unspecified)
system.caches.network.routers1.msg_bytes.Response_Data::4     21973320                       (Unspecified)
system.caches.network.routers1.msg_count.Writeback_Control::3       305155                       (Unspecified)
system.caches.network.routers1.msg_bytes.Writeback_Control::3      2441240                       (Unspecified)
system.caches.network.routers1.port_buffers2.m_buf_msgs     0.046961                       # Average number of messages in buffer (Unspecified)
system.caches.network.routers1.port_buffers2.m_stall_time  9523.682147                       # Average number of cycles messages are stalled in this MB (Unspecified)
system.caches.network.routers1.port_buffers6.m_buf_msgs     0.035211                       # Average number of messages in buffer (Unspecified)
system.caches.network.routers1.port_buffers6.m_stall_time  2262.609885                       # Average number of cycles messages are stalled in this MB (Unspecified)
system.caches.network.routers1.port_buffers7.m_buf_msgs     0.025507                       # Average number of messages in buffer (Unspecified)
system.caches.network.routers1.port_buffers7.m_stall_time  2052.447127                       # Average number of cycles messages are stalled in this MB (Unspecified)
system.caches.network.routers1.power_state.pwrStateResidencyTicks::UNDEFINED  12996689000                       # Cumulative time (in ticks) in various power states (Tick)
system.caches.network.routers1.throttle00.link_utilization     0.004131                       (Unspecified)
system.caches.network.routers1.throttle00.msg_count.Control::2       305187                       (Unspecified)
system.caches.network.routers1.throttle00.msg_bytes.Control::2      2441496                       (Unspecified)
system.caches.network.routers1.throttle00.msg_count.Data::2       305155                       (Unspecified)
system.caches.network.routers1.throttle00.msg_bytes.Data::2     21971160                       (Unspecified)
system.caches.network.routers1.throttle01.link_utilization     0.003845                       (Unspecified)
system.caches.network.routers1.throttle01.msg_count.Response_Data::4       305185                       (Unspecified)
system.caches.network.routers1.throttle01.msg_bytes.Response_Data::4     21973320                       (Unspecified)
system.caches.network.routers1.throttle01.msg_count.Writeback_Control::3       305155                       (Unspecified)
system.caches.network.routers1.throttle01.msg_bytes.Writeback_Control::3      2441240                       (Unspecified)
system.caches.power_state.pwrStateResidencyTicks::UNDEFINED  12996689000                       # Cumulative time (in ticks) in various power states (Tick)
system.caches.sequencers.power_state.pwrStateResidencyTicks::UNDEFINED  12996689000                       # Cumulative time (in ticks) in various power states (Tick)
system.caches.sys_port_proxy.power_state.pwrStateResidencyTicks::UNDEFINED  12996689000                       # Cumulative time (in ticks) in various power states (Tick)
system.clk_domain.clock                          1000                       # Clock period in ticks (Tick)
system.clk_domain.voltage_domain.voltage            1                       # Voltage in Volts (Volt)
system.cpu.numCycles                          3147285                       # Number of cpu cycles simulated (Cycle)
system.cpu.numWorkItemsStarted                      0                       # Number of work items this cpu started (Count)
system.cpu.numWorkItemsCompleted                    0                       # Number of work items this cpu completed (Count)
system.cpu.instsAdded                         8388685                       # Number of instructions added to the IQ (excludes non-spec) (Count)
system.cpu.nonSpecInstsAdded                        3                       # Number of non-speculative instructions added to the IQ (Count)
system.cpu.instsIssued                        8388681                       # Number of instructions issued (Count)
system.cpu.squashedInstsExamined                   49                       # Number of squashed instructions iterated over during squash; mainly for profiling (Count)
system.cpu.squashedOperandsExamined                22                       # Number of squashed operands that are examined and possibly removed from graph (Count)
system.cpu.squashedNonSpecRemoved                   2                       # Number of squashed non-spec instructions that were removed (Count)
system.cpu.numIssuedDist::samples             3147285                       # Number of insts issued each cycle (Count)
system.cpu.numIssuedDist::mean               2.665371                       # Number of insts issued each cycle (Count)
system.cpu.numIssuedDist::stdev              1.334306                       # Number of insts issued each cycle (Count)
system.cpu.numIssuedDist::underflows                0      0.00%      0.00% # Number of insts issued each cycle (Count)
system.cpu.numIssuedDist::0                      1482      0.05%      0.05% # Number of insts issued each cycle (Count)
system.cpu.numIssuedDist::1                    699153     22.21%     22.26% # Number of insts issued each cycle (Count)
system.cpu.numIssuedDist::2                   1048545     33.32%     55.58% # Number of insts issued each cycle (Count)
system.cpu.numIssuedDist::3                    349535     11.11%     66.68% # Number of insts issued each cycle (Count)
system.cpu.numIssuedDist::4                    699036     22.21%     88.89% # Number of insts issued each cycle (Count)
system.cpu.numIssuedDist::5                    349515     11.11%    100.00% # Number of insts issued each cycle (Count)
system.cpu.numIssuedDist::6                        19      0.00%    100.00% # Number of insts issued each cycle (Count)
system.cpu.numIssuedDist::7                         0      0.00%    100.00% # Number of insts issued each cycle (Count)
system.cpu.numIssuedDist::8                         0      0.00%    100.00% # Number of insts issued each cycle (Count)
system.cpu.numIssuedDist::overflows                 0      0.00%    100.00% # Number of insts issued each cycle (Count)
system.cpu.numIssuedDist::min_value                 0                       # Number of insts issued each cycle (Count)
system.cpu.numIssuedDist::max_value                 6                       # Number of insts issued each cycle (Count)
system.cpu.numIssuedDist::total               3147285                       # Number of insts issued each cycle (Count)
system.cpu.statFuBusy::No_OpClass                   0      0.00%      0.00% # attempts to use FU when none available (Count)
system.cpu.statFuBusy::IntAlu                       9    100.00%    100.00% # attempts to use FU when none available (Count)
system.cpu.statFuBusy::IntMult                      0      0.00%    100.00% # attempts to use FU when none available (Count)
system.cpu.statFuBusy::IntDiv                       0      0.00%    100.00% # attempts to use FU when none available (Count)
system.cpu.statFuBusy::FloatAdd                     0      0.00%    100.00% # attempts to use FU when none available (Count)
system.cpu.statFuBusy::FloatCmp                     0      0.00%    100.00% # attempts to use FU when none available (Count)
system.cpu.statFuBusy::FloatCvt                     0      0.00%    100.00% # attempts to use FU when none available (Count)
system.cpu.statFuBusy::FloatMult                    0      0.00%    100.00% # attempts to use FU when none available (Count)
system.cpu.statFuBusy::FloatMultAcc                 0      0.00%    100.00% # attempts to use FU when none available (Count)
system.cpu.statFuBusy::FloatDiv                     0      0.00%    100.00% # attempts to use FU when none available (Count)
system.cpu.statFuBusy::FloatMisc                    0      0.00%    100.00% # attempts to use FU when none available (Count)
system.cpu.statFuBusy::FloatSqrt                    0      0.00%    100.00% # attempts to use FU when none available (Count)
system.cpu.statFuBusy::SimdAdd                      0      0.00%    100.00% # attempts to use FU when none available (Count)
system.cpu.statFuBusy::SimdAddAcc                   0      0.00%    100.00% # attempts to use FU when none available (Count)
system.cpu.statFuBusy::SimdAlu                      0      0.00%    100.00% # attempts to use FU when none available (Count)
system.cpu.statFuBusy::SimdCmp                      0      0.00%    100.00% # attempts to use FU when none available (Count)
system.cpu.statFuBusy::SimdCvt                      0      0.00%    100.00% # attempts to use FU when none available (Count)
system.cpu.statFuBusy::SimdMisc                     0      0.00%    100.00% # attempts to use FU when none available (Count)
system.cpu.statFuBusy::SimdMult                     0      0.00%    100.00% # attempts to use FU when none available (Count)
system.cpu.statFuBusy::SimdMultAcc                  0      0.00%    100.00% # attempts to use FU when none available (Count)
system.cpu.statFuBusy::SimdShift                    0      0.00%    100.00% # attempts to use FU when none available (Count)
system.cpu.statFuBusy::SimdShiftAcc                 0      0.00%    100.00% # attempts to use FU when none available (Count)
system.cpu.statFuBusy::SimdDiv                      0      0.00%    100.00% # attempts to use FU when none available (Count)
system.cpu.statFuBusy::SimdSqrt                     0      0.00%    100.00% # attempts to use FU when none available (Count)
system.cpu.statFuBusy::SimdFloatAdd                 0      0.00%    100.00% # attempts to use FU when none available (Count)
system.cpu.statFuBusy::SimdFloatAlu                 0      0.00%    100.00% # attempts to use FU when none available (Count)
system.cpu.statFuBusy::SimdFloatCmp                 0      0.00%    100.00% # attempts to use FU when none available (Count)
system.cpu.statFuBusy::SimdFloatCvt                 0      0.00%    100.00% # attempts to use FU when none available (Count)
system.cpu.statFuBusy::SimdFloatDiv                 0      0.00%    100.00% # attempts to use FU when none available (Count)
system.cpu.statFuBusy::SimdFloatMisc                0      0.00%    100.00% # attempts to use FU when none available (Count)
system.cpu.statFuBusy::SimdFloatMult                0      0.00%    100.00% # attempts to use FU when none available (Count)
system.cpu.statFuBusy::SimdFloatMultAcc             0      0.00%    100.00% # attempts to use FU when none available (Count)
system.cpu.statFuBusy::SimdFloatSqrt                0      0.00%    100.00% # attempts to use FU when none available (Count)
system.cpu.statFuBusy::SimdReduceAdd                0      0.00%    100.00% # attempts to use FU when none available (Count)
system.cpu.statFuBusy::SimdReduceAlu                0      0.00%    100.00% # attempts to use FU when none available (Count)
system.cpu.statFuBusy::SimdReduceCmp                0      0.00%    100.00% # attempts to use FU when none available (Count)
system.cpu.statFuBusy::SimdFloatReduceAdd            0      0.00%    100.00% # attempts to use FU when none available (Count)
system.cpu.statFuBusy::SimdFloatReduceCmp            0      0.00%    100.00% # attempts to use FU when none available (Count)
system.cpu.statFuBusy::SimdAes                      0      0.00%    100.00% # attempts to use FU when none available (Count)
system.cpu.statFuBusy::SimdAesMix                   0      0.00%    100.00% # attempts to use FU when none available (Count)
system.cpu.statFuBusy::SimdSha1Hash                 0      0.00%    100.00% # attempts to use FU when none available (Count)
system.cpu.statFuBusy::SimdSha1Hash2                0      0.00%    100.00% # attempts to use FU when none available (Count)
system.cpu.statFuBusy::SimdSha256Hash               0      0.00%    100.00% # attempts to use FU when none available (Count)
system.cpu.statFuBusy::SimdSha256Hash2              0      0.00%    100.00% # attempts to use FU when none available (Count)
system.cpu.statFuBusy::SimdShaSigma2                0      0.00%    100.00% # attempts to use FU when none available (Count)
system.cpu.statFuBusy::SimdShaSigma3                0      0.00%    100.00% # attempts to use FU when none available (Count)
system.cpu.statFuBusy::SimdPredAlu                  0      0.00%    100.00% # attempts to use FU when none available (Count)
system.cpu.statFuBusy::MemRead                      0      0.00%    100.00% # attempts to use FU when none available (Count)
system.cpu.statFuBusy::MemWrite                     0      0.00%    100.00% # attempts to use FU when none available (Count)
system.cpu.statFuBusy::FloatMemRead                 0      0.00%    100.00% # attempts to use FU when none available (Count)
system.cpu.statFuBusy::FloatMemWrite                0      0.00%    100.00% # attempts to use FU when none available (Count)
system.cpu.statFuBusy::IprAccess                    0      0.00%    100.00% # attempts to use FU when none available (Count)
system.cpu.statFuBusy::InstPrefetch                 0      0.00%    100.00% # attempts to use FU when none available (Count)
system.cpu.statIssuedInstType_0::No_OpClass            1      0.00%      0.00% # Number of instructions issued per FU type, per thread (Count)
system.cpu.statIssuedInstType_0::IntAlu       7340093     87.50%     87.50% # Number of instructions issued per FU type, per thread (Count)
system.cpu.statIssuedInstType_0::IntMult            0      0.00%     87.50% # Number of instructions issued per FU type, per thread (Count)
system.cpu.statIssuedInstType_0::IntDiv             0      0.00%     87.50% # Number of instructions issued per FU type, per thread (Count)
system.cpu.statIssuedInstType_0::FloatAdd            0      0.00%     87.50% # Number of instructions issued per FU type, per thread (Count)
system.cpu.statIssuedInstType_0::FloatCmp            0      0.00%     87.50% # Number of instructions issued per FU type, per thread (Count)
system.cpu.statIssuedInstType_0::FloatCvt            0      0.00%     87.50% # Number of instructions issued per FU type, per thread (Count)
system.cpu.statIssuedInstType_0::FloatMult            0      0.00%     87.50% # Number of instructions issued per FU type, per thread (Count)
system.cpu.statIssuedInstType_0::FloatMultAcc            0      0.00%     87.50% # Number of instructions issued per FU type, per thread (Count)
system.cpu.statIssuedInstType_0::FloatDiv            0      0.00%     87.50% # Number of instructions issued per FU type, per thread (Count)
system.cpu.statIssuedInstType_0::FloatMisc            0      0.00%     87.50% # Number of instructions issued per FU type, per thread (Count)
system.cpu.statIssuedInstType_0::FloatSqrt            0      0.00%     87.50% # Number of instructions issued per FU type, per thread (Count)
system.cpu.statIssuedInstType_0::SimdAdd            0      0.00%     87.50% # Number of instructions issued per FU type, per thread (Count)
system.cpu.statIssuedInstType_0::SimdAddAcc            0      0.00%     87.50% # Number of instructions issued per FU type, per thread (Count)
system.cpu.statIssuedInstType_0::SimdAlu            0      0.00%     87.50% # Number of instructions issued per FU type, per thread (Count)
system.cpu.statIssuedInstType_0::SimdCmp            0      0.00%     87.50% # Number of instructions issued per FU type, per thread (Count)
system.cpu.statIssuedInstType_0::SimdCvt            0      0.00%     87.50% # Number of instructions issued per FU type, per thread (Count)
system.cpu.statIssuedInstType_0::SimdMisc            0      0.00%     87.50% # Number of instructions issued per FU type, per thread (Count)
system.cpu.statIssuedInstType_0::SimdMult            0      0.00%     87.50% # Number of instructions issued per FU type, per thread (Count)
system.cpu.statIssuedInstType_0::SimdMultAcc            0      0.00%     87.50% # Number of instructions issued per FU type, per thread (Count)
system.cpu.statIssuedInstType_0::SimdShift            0      0.00%     87.50% # Number of instructions issued per FU type, per thread (Count)
system.cpu.statIssuedInstType_0::SimdShiftAcc            0      0.00%     87.50% # Number of instructions issued per FU type, per thread (Count)
system.cpu.statIssuedInstType_0::SimdDiv            0      0.00%     87.50% # Number of instructions issued per FU type, per thread (Count)
system.cpu.statIssuedInstType_0::SimdSqrt            0      0.00%     87.50% # Number of instructions issued per FU type, per thread (Count)
system.cpu.statIssuedInstType_0::SimdFloatAdd            0      0.00%     87.50% # Number of instructions issued per FU type, per thread (Count)
system.cpu.statIssuedInstType_0::SimdFloatAlu            0      0.00%     87.50% # Number of instructions issued per FU type, per thread (Count)
system.cpu.statIssuedInstType_0::SimdFloatCmp            0      0.00%     87.50% # Number of instructions issued per FU type, per thread (Count)
system.cpu.statIssuedInstType_0::SimdFloatCvt            0      0.00%     87.50% # Number of instructions issued per FU type, per thread (Count)
system.cpu.statIssuedInstType_0::SimdFloatDiv            0      0.00%     87.50% # Number of instructions issued per FU type, per thread (Count)
system.cpu.statIssuedInstType_0::SimdFloatMisc            0      0.00%     87.50% # Number of instructions issued per FU type, per thread (Count)
system.cpu.statIssuedInstType_0::SimdFloatMult            0      0.00%     87.50% # Number of instructions issued per FU type, per thread (Count)
system.cpu.statIssuedInstType_0::SimdFloatMultAcc            0      0.00%     87.50% # Number of instructions issued per FU type, per thread (Count)
system.cpu.statIssuedInstType_0::SimdFloatSqrt            0      0.00%     87.50% # Number of instructions issued per FU type, per thread (Count)
system.cpu.statIssuedInstType_0::SimdReduceAdd            0      0.00%     87.50% # Number of instructions issued per FU type, per thread (Count)
system.cpu.statIssuedInstType_0::SimdReduceAlu            0      0.00%     87.50% # Number of instructions issued per FU type, per thread (Count)
system.cpu.statIssuedInstType_0::SimdReduceCmp            0      0.00%     87.50% # Number of instructions issued per FU type, per thread (Count)
system.cpu.statIssuedInstType_0::SimdFloatReduceAdd            0      0.00%     87.50% # Number of instructions issued per FU type, per thread (Count)
system.cpu.statIssuedInstType_0::SimdFloatReduceCmp            0      0.00%     87.50% # Number of instructions issued per FU type, per thread (Count)
system.cpu.statIssuedInstType_0::SimdAes            0      0.00%     87.50% # Number of instructions issued per FU type, per thread (Count)
system.cpu.statIssuedInstType_0::SimdAesMix            0      0.00%     87.50% # Number of instructions issued per FU type, per thread (Count)
system.cpu.statIssuedInstType_0::SimdSha1Hash            0      0.00%     87.50% # Number of instructions issued per FU type, per thread (Count)
system.cpu.statIssuedInstType_0::SimdSha1Hash2            0      0.00%     87.50% # Number of instructions issued per FU type, per thread (Count)
system.cpu.statIssuedInstType_0::SimdSha256Hash            0      0.00%     87.50% # Number of instructions issued per FU type, per thread (Count)
system.cpu.statIssuedInstType_0::SimdSha256Hash2            0      0.00%     87.50% # Number of instructions issued per FU type, per thread (Count)
system.cpu.statIssuedInstType_0::SimdShaSigma2            0      0.00%     87.50% # Number of instructions issued per FU type, per thread (Count)
system.cpu.statIssuedInstType_0::SimdShaSigma3            0      0.00%     87.50% # Number of instructions issued per FU type, per thread (Count)
system.cpu.statIssuedInstType_0::SimdPredAlu            0      0.00%     87.50% # Number of instructions issued per FU type, per thread (Count)
system.cpu.statIssuedInstType_0::MemRead      1048580     12.50%    100.00% # Number of instructions issued per FU type, per thread (Count)
system.cpu.statIssuedInstType_0::MemWrite            7      0.00%    100.00% # Number of instructions issued per FU type, per thread (Count)
system.cpu.statIssuedInstType_0::FloatMemRead            0      0.00%    100.00% # Number of instructions issued per FU type, per thread (Count)
system.cpu.statIssuedInstType_0::FloatMemWrite            0      0.00%    100.00% # Number of instructions issued per FU type, per thread (Count)
system.cpu.statIssuedInstType_0::IprAccess            0      0.00%    100.00% # Number of instructions issued per FU type, per thread (Count)
system.cpu.statIssuedInstType_0::InstPrefetch            0      0.00%    100.00% # Number of instructions issued per FU type, per thread (Count)
system.cpu.statIssuedInstType_0::total        8388681                       # Number of instructions issued per FU type, per thread (Count)
system.cpu.issueRate                         2.665371                       # Inst issue rate ((Count/Cycle))
system.cpu.fuBusy                                   9                       # FU busy when requested (Count)
system.cpu.fuBusyRate                        0.000001                       # FU busy rate (busy events/executed inst) ((Count/Count))
system.cpu.intInstQueueReads                 19924657                       # Number of integer instruction queue reads (Count)
system.cpu.intInstQueueWrites                 8388737                       # Number of integer instruction queue writes (Count)
system.cpu.intInstQueueWakeupAccesses         8388673                       # Number of integer instruction queue wakeup accesses (Count)
system.cpu.fpInstQueueReads                         0                       # Number of floating instruction queue reads (Count)
system.cpu.fpInstQueueWrites                        0                       # Number of floating instruction queue writes (Count)
system.cpu.fpInstQueueWakeupAccesses                0                       # Number of floating instruction queue wakeup accesses (Count)
system.cpu.vecInstQueueReads                        0                       # Number of vector instruction queue reads (Count)
system.cpu.vecInstQueueWrites                       0                       # Number of vector instruction queue writes (Count)
system.cpu.vecInstQueueWakeupAccesses               0                       # Number of vector instruction queue wakeup accesses (Count)
system.cpu.intAluAccesses                     8388689                       # Number of integer alu accesses (Count)
system.cpu.fpAluAccesses                            0                       # Number of floating point alu accesses (Count)
system.cpu.vecAluAccesses                           0                       # Number of vector alu accesses (Count)
system.cpu.idleCycles                               0                       # Number of cycles IEW is idle (Cycle)
system.cpu.squashCycles                             4                       # Number of cycles IEW is squashing (Cycle)
system.cpu.blockCycles                              3                       # Number of cycles IEW is blocking (Cycle)
system.cpu.unblockCycles                            0                       # Number of cycles IEW is unblocking (Cycle)
system.cpu.dispatchedInsts                    8388688                       # Number of instructions dispatched to IQ (Count)
system.cpu.dispSquashedInsts                        4                       # Number of squashed instructions skipped by dispatch (Count)
system.cpu.dispLoadInsts                      1048581                       # Number of dispatched load instructions (Count)
system.cpu.dispStoreInsts                           8                       # Number of dispatched store instructions (Count)
system.cpu.dispNonSpecInsts                         3                       # Number of dispatched non-speculative instructions (Count)
system.cpu.iqFullEvents                             0                       # Number of times the IQ has become full, causing a stall (Count)
system.cpu.lsqFullEvents                            0                       # Number of times the LSQ has become full, causing a stall (Count)
system.cpu.memOrderViolationEvents                  0                       # Number of memory order violations (Count)
system.cpu.predictedTakenIncorrect                  1                       # Number of branches that were predicted taken incorrectly (Count)
system.cpu.predictedNotTakenIncorrect               3                       # Number of branches that were predicted not taken incorrectly (Count)
system.cpu.branchMispredicts                        4                       # Number of branch mispredicts detected at execute (Count)
system.cpu.numInsts                           8388674                       # Number of executed instructions (Count)
system.cpu.numLoadInsts                       1048580                       # Number of load instructions executed (Count)
system.cpu.numSquashedInsts                         8                       # Number of squashed instructions skipped in execute (Count)
system.cpu.numSwp                                   0                       # Number of swp insts executed (Count)
system.cpu.numNop                                   0                       # Number of nop insts executed (Count)
system.cpu.numRefs                            1048586                       # Number of memory reference insts executed (Count)
system.cpu.numBranches                        1048586                       # Number of branches executed (Count)
system.cpu.numStoreInsts                            6                       # Number of stores executed (Count)
system.cpu.numRate                           2.665368                       # Inst execution rate ((Count/Cycle))
system.cpu.instsToCommit                      8388673                       # Cumulative count of insts sent to commit (Count)
system.cpu.writebackCount                     8388673                       # Cumulative count of insts written-back (Count)
system.cpu.producerInst                       7340039                       # Number of instructions producing a value (Count)
system.cpu.consumerInst                       8738155                       # Number of instructions consuming a value (Count)
system.cpu.wbRate                            2.665368                       # Insts written-back per cycle ((Count/Cycle))
system.cpu.wbFanout                          0.839999                       # Average fanout of values written-back ((Count/Count))
system.cpu.committedInsts                     4194313                       # Number of Instructions Simulated (Count)
system.cpu.committedOps                       8388625                       # Number of Ops (including micro ops) Simulated (Count)
system.cpu.cpi                               0.750370                       # CPI: Cycles Per Instruction ((Cycle/Count))
system.cpu.totalCpi                          0.750370                       # CPI: Total CPI of All Threads ((Cycle/Count))
system.cpu.ipc                               1.332677                       # IPC: Instructions Per Cycle ((Count/Cycle))
system.cpu.totalIpc                          1.332677                       # IPC: Total IPC of All Threads ((Count/Cycle))
system.cpu.intRegfileReads                    8388686                       # Number of integer regfile reads (Count)
system.cpu.intRegfileWrites                   7340079                       # Number of integer regfile writes (Count)
system.cpu.ccRegfileReads                     5242894                       # number of cc regfile reads (Count)
system.cpu.ccRegfileWrites                    4194324                       # number of cc regfile writes (Count)
system.cpu.miscRegfileReads                   3145758                       # number of misc regfile reads (Count)
system.cpu.MemDepUnit__0.insertedLoads        1048581                       # Number of loads inserted to the mem dependence unit. (Count)
system.cpu.MemDepUnit__0.insertedStores             8                       # Number of stores inserted to the mem dependence unit. (Count)
system.cpu.MemDepUnit__0.conflictingLoads            0                       # Number of conflicting loads. (Count)
system.cpu.MemDepUnit__0.conflictingStores            0                       # Number of conflicting stores. (Count)
system.cpu.MemDepUnit__1.insertedLoads              0                       # Number of loads inserted to the mem dependence unit. (Count)
system.cpu.MemDepUnit__1.insertedStores             0                       # Number of stores inserted to the mem dependence unit. (Count)
system.cpu.MemDepUnit__1.conflictingLoads            0                       # Number of conflicting loads. (Count)
system.cpu.MemDepUnit__1.conflictingStores            0                       # Number of conflicting stores. (Count)
system.cpu.MemDepUnit__2.insertedLoads              0                       # Number of loads inserted to the mem dependence unit. (Count)
system.cpu.MemDepUnit__2.insertedStores             0                       # Number of stores inserted to the mem dependence unit. (Count)
system.cpu.MemDepUnit__2.conflictingLoads            0                       # Number of conflicting loads. (Count)
system.cpu.MemDepUnit__2.conflictingStores            0                       # Number of conflicting stores. (Count)
system.cpu.MemDepUnit__3.insertedLoads              0                       # Number of loads inserted to the mem dependence unit. (Count)
system.cpu.MemDepUnit__3.insertedStores             0                       # Number of stores inserted to the mem dependence unit. (Count)
system.cpu.MemDepUnit__3.conflictingLoads            0                       # Number of conflicting loads. (Count)
system.cpu.MemDepUnit__3.conflictingStores            0                       # Number of conflicting stores. (Count)
system.cpu.branchPred.lookups                 1048595                       # Number of BP lookups (Count)
system.cpu.branchPred.condPredicted           1048582                       # Number of conditional branches predicted (Count)
system.cpu.branchPred.condIncorrect                 6                       # Number of conditional branches incorrect (Count)
system.cpu.branchPred.BTBLookups              1048588                       # Number of BTB lookups (Count)
system.cpu.branchPred.BTBHits                 1048586                       # Number of BTB hits (Count)
system.cpu.branchPred.BTBHitRatio            0.999998                       # BTB Hit Ratio (Ratio)
system.cpu.branchPred.RASUsed                       4                       # Number of times the RAS was used to get a target. (Count)
system.cpu.branchPred.RASIncorrect                  0                       # Number of incorrect RAS predictions. (Count)
system.cpu.branchPred.indirectLookups               1                       # Number of indirect predictor lookups. (Count)
system.cpu.branchPred.indirectHits                  0                       # Number of indirect target hits. (Count)
system.cpu.branchPred.indirectMisses                1                       # Number of indirect misses. (Count)
system.cpu.branchPred.indirectMispredicted            0                       # Number of mispredicted indirect branches. (Count)
system.cpu.commit.commitSquashedInsts              49                       # The number of squashed insts skipped by commit (Count)
system.cpu.commit.commitNonSpecStalls               1                       # The number of times commit has been forced to stall to communicate backwards (Count)
system.cpu.commit.branchMispredicts                 4                       # The number of times a branch was mispredicted (Count)
system.cpu.commit.numCommittedDist::samples      3147278                       # Number of insts commited each cycle (Count)
system.cpu.commit.numCommittedDist::mean     2.665359                       # Number of insts commited each cycle (Count)
system.cpu.commit.numCommittedDist::stdev     3.770771                       # Number of insts commited each cycle (Count)
system.cpu.commit.numCommittedDist::underflows            0      0.00%      0.00% # Number of insts commited each cycle (Count)
system.cpu.commit.numCommittedDist::0         2098697     66.68%     66.68% # Number of insts commited each cycle (Count)
system.cpu.commit.numCommittedDist::1               1      0.00%     66.68% # Number of insts commited each cycle (Count)
system.cpu.commit.numCommittedDist::2               0      0.00%     66.68% # Number of insts commited each cycle (Count)
system.cpu.commit.numCommittedDist::3               2      0.00%     66.68% # Number of insts commited each cycle (Count)
system.cpu.commit.numCommittedDist::4               0      0.00%     66.68% # Number of insts commited each cycle (Count)
system.cpu.commit.numCommittedDist::5               2      0.00%     66.68% # Number of insts commited each cycle (Count)
system.cpu.commit.numCommittedDist::6               0      0.00%     66.68% # Number of insts commited each cycle (Count)
system.cpu.commit.numCommittedDist::7               0      0.00%     66.68% # Number of insts commited each cycle (Count)
system.cpu.commit.numCommittedDist::8         1048576     33.32%    100.00% # Number of insts commited each cycle (Count)
system.cpu.commit.numCommittedDist::overflows            0      0.00%    100.00% # Number of insts commited each cycle (Count)
system.cpu.commit.numCommittedDist::min_value            0                       # Number of insts commited each cycle (Count)
system.cpu.commit.numCommittedDist::max_value            8                       # Number of insts commited each cycle (Count)
system.cpu.commit.numCommittedDist::total      3147278                       # Number of insts commited each cycle (Count)
system.cpu.commit.instsCommitted              4194313                       # Number of instructions committed (Count)
system.cpu.commit.opsCommitted                8388625                       # Number of ops (including micro ops) committed (Count)
system.cpu.commit.memRefs                     1048578                       # Number of memory references committed (Count)
system.cpu.commit.loads                       1048577                       # Number of loads committed (Count)
system.cpu.commit.amos                              0                       # Number of atomic instructions committed (Count)
system.cpu.commit.membars                           0                       # Number of memory barriers committed (Count)
system.cpu.commit.branches                    1048579                       # Number of branches committed (Count)
system.cpu.commit.vectorInstructions                0                       # Number of committed Vector instructions. (Count)
system.cpu.commit.floating                          0                       # Number of committed floating point instructions. (Count)
system.cpu.commit.integer                     8388623                       # Number of committed integer instructions. (Count)
system.cpu.commit.functionCalls                     1                       # Number of function calls committed. (Count)
system.cpu.commit.committedInstType_0::No_OpClass            1      0.00%      0.00% # Class of committed instruction (Count)
system.cpu.commit.committedInstType_0::IntAlu      7340046     87.50%     87.50% # Class of committed instruction (Count)
system.cpu.commit.committedInstType_0::IntMult            0      0.00%     87.50% # Class of committed instruction (Count)
system.cpu.commit.committedInstType_0::IntDiv            0      0.00%     87.50% # Class of committed instruction (Count)
system.cpu.commit.committedInstType_0::FloatAdd            0      0.00%     87.50% # Class of committed instruction (Count)
system.cpu.commit.committedInstType_0::FloatCmp            0      0.00%     87.50% # Class of committed instruction (Count)
system.cpu.commit.committedInstType_0::FloatCvt            0      0.00%     87.50% # Class of committed instruction (Count)
system.cpu.commit.committedInstType_0::FloatMult            0      0.00%     87.50% # Class of committed instruction (Count)
system.cpu.commit.committedInstType_0::FloatMultAcc            0      0.00%     87.50% # Class of committed instruction (Count)
system.cpu.commit.committedInstType_0::FloatDiv            0      0.00%     87.50% # Class of committed instruction (Count)
system.cpu.commit.committedInstType_0::FloatMisc            0      0.00%     87.50% # Class of committed instruction (Count)
system.cpu.commit.committedInstType_0::FloatSqrt            0      0.00%     87.50% # Class of committed instruction (Count)
system.cpu.commit.committedInstType_0::SimdAdd            0      0.00%     87.50% # Class of committed instruction (Count)
system.cpu.commit.committedInstType_0::SimdAddAcc            0      0.00%     87.50% # Class of committed instruction (Count)
system.cpu.commit.committedInstType_0::SimdAlu            0      0.00%     87.50% # Class of committed instruction (Count)
system.cpu.commit.committedInstType_0::SimdCmp            0      0.00%     87.50% # Class of committed instruction (Count)
system.cpu.commit.committedInstType_0::SimdCvt            0      0.00%     87.50% # Class of committed instruction (Count)
system.cpu.commit.committedInstType_0::SimdMisc            0      0.00%     87.50% # Class of committed instruction (Count)
system.cpu.commit.committedInstType_0::SimdMult            0      0.00%     87.50% # Class of committed instruction (Count)
system.cpu.commit.committedInstType_0::SimdMultAcc            0      0.00%     87.50% # Class of committed instruction (Count)
system.cpu.commit.committedInstType_0::SimdShift            0      0.00%     87.50% # Class of committed instruction (Count)
system.cpu.commit.committedInstType_0::SimdShiftAcc            0      0.00%     87.50% # Class of committed instruction (Count)
system.cpu.commit.committedInstType_0::SimdDiv            0      0.00%     87.50% # Class of committed instruction (Count)
system.cpu.commit.committedInstType_0::SimdSqrt            0      0.00%     87.50% # Class of committed instruction (Count)
system.cpu.commit.committedInstType_0::SimdFloatAdd            0      0.00%     87.50% # Class of committed instruction (Count)
system.cpu.commit.committedInstType_0::SimdFloatAlu            0      0.00%     87.50% # Class of committed instruction (Count)
system.cpu.commit.committedInstType_0::SimdFloatCmp            0      0.00%     87.50% # Class of committed instruction (Count)
system.cpu.commit.committedInstType_0::SimdFloatCvt            0      0.00%     87.50% # Class of committed instruction (Count)
system.cpu.commit.committedInstType_0::SimdFloatDiv            0      0.00%     87.50% # Class of committed instruction (Count)
system.cpu.commit.committedInstType_0::SimdFloatMisc            0      0.00%     87.50% # Class of committed instruction (Count)
system.cpu.commit.committedInstType_0::SimdFloatMult            0      0.00%     87.50% # Class of committed instruction (Count)
system.cpu.commit.committedInstType_0::SimdFloatMultAcc            0      0.00%     87.50% # Class of committed instruction (Count)
system.cpu.commit.committedInstType_0::SimdFloatSqrt            0      0.00%     87.50% # Class of committed instruction (Count)
system.cpu.commit.committedInstType_0::SimdReduceAdd            0      0.00%     87.50% # Class of committed instruction (Count)
system.cpu.commit.committedInstType_0::SimdReduceAlu            0      0.00%     87.50% # Class of committed instruction (Count)
system.cpu.commit.committedInstType_0::SimdReduceCmp            0      0.00%     87.50% # Class of committed instruction (Count)
system.cpu.commit.committedInstType_0::SimdFloatReduceAdd            0      0.00%     87.50% # Class of committed instruction (Count)
system.cpu.commit.committedInstType_0::SimdFloatReduceCmp            0      0.00%     87.50% # Class of committed instruction (Count)
system.cpu.commit.committedInstType_0::SimdAes            0      0.00%     87.50% # Class of committed instruction (Count)
system.cpu.commit.committedInstType_0::SimdAesMix            0      0.00%     87.50% # Class of committed instruction (Count)
system.cpu.commit.committedInstType_0::SimdSha1Hash            0      0.00%     87.50% # Class of committed instruction (Count)
system.cpu.commit.committedInstType_0::SimdSha1Hash2            0      0.00%     87.50% # Class of committed instruction (Count)
system.cpu.commit.committedInstType_0::SimdSha256Hash            0      0.00%     87.50% # Class of committed instruction (Count)
system.cpu.commit.committedInstType_0::SimdSha256Hash2            0      0.00%     87.50% # Class of committed instruction (Count)
system.cpu.commit.committedInstType_0::SimdShaSigma2            0      0.00%     87.50% # Class of committed instruction (Count)
system.cpu.commit.committedInstType_0::SimdShaSigma3            0      0.00%     87.50% # Class of committed instruction (Count)
system.cpu.commit.committedInstType_0::SimdPredAlu            0      0.00%     87.50% # Class of committed instruction (Count)
system.cpu.commit.committedInstType_0::MemRead      1048577     12.50%    100.00% # Class of committed instruction (Count)
system.cpu.commit.committedInstType_0::MemWrite            1      0.00%    100.00% # Class of committed instruction (Count)
system.cpu.commit.committedInstType_0::FloatMemRead            0      0.00%    100.00% # Class of committed instruction (Count)
system.cpu.commit.committedInstType_0::FloatMemWrite            0      0.00%    100.00% # Class of committed instruction (Count)
system.cpu.commit.committedInstType_0::IprAccess            0      0.00%    100.00% # Class of committed instruction (Count)
system.cpu.commit.committedInstType_0::InstPrefetch            0      0.00%    100.00% # Class of committed instruction (Count)
system.cpu.commit.committedInstType_0::total      8388625                       # Class of committed instruction (Count)
system.cpu.commit.commitEligibleSamples       1048576                       # number cycles where commit BW limit reached (Cycle)
system.cpu.decode.idleCycles                   349603                       # Number of cycles decode is idle (Cycle)
system.cpu.decode.blockedCycles               1749086                       # Number of cycles decode is blocked (Cycle)
system.cpu.decode.runCycles                        36                       # Number of cycles decode is running (Cycle)
system.cpu.decode.unblockCycles               1048556                       # Number of cycles decode is unblocking (Cycle)
system.cpu.decode.squashCycles                      4                       # Number of cycles decode is squashing (Cycle)
system.cpu.decode.branchResolved              1048583                       # Number of times decode resolved a branch (Count)
system.cpu.decode.branchMispred                     1                       # Number of times decode detected a branch misprediction (Count)
system.cpu.decode.decodedInsts                8388685                       # Number of instructions handled by decode (Count)
system.cpu.decode.squashedInsts                    16                       # Number of squashed instructions handled by decode (Count)
system.cpu.fetch.icacheStallCycles                 84                       # Number of cycles fetch is stalled on an Icache miss (Cycle)
system.cpu.fetch.insts                        4194360                       # Number of instructions fetch has processed (Count)
system.cpu.fetch.branches                     1048595                       # Number of branches that fetch encountered (Count)
system.cpu.fetch.predictedBranches            1048590                       # Number of branches that fetch has predicted taken (Count)
system.cpu.fetch.cycles                       3147195                       # Number of cycles fetch has run and was not squashing or blocked (Cycle)
system.cpu.fetch.squashCycles                      12                       # Number of cycles fetch has spent squashing (Cycle)
system.cpu.fetch.cacheLines                        14                       # Number of cache lines fetched (Count)
system.cpu.fetch.icacheSquashes                     2                       # Number of outstanding Icache misses that were squashed (Count)
system.cpu.fetch.nisnDist::samples            3147285                       # Number of instructions fetched each cycle (Total) (Count)
system.cpu.fetch.nisnDist::mean              2.665388                       # Number of instructions fetched each cycle (Total) (Count)
[...]
system.mem_ctrl.rdPerTurnAround::15             15880      6.11%      6.35% # Reads before turning the bus around for writes (Count)
system.mem_ctrl.rdPerTurnAround::16            237389     91.30%     97.64% # Reads before turning the bus around for writes (Count)
system.mem_ctrl.rdPerTurnAround::17              6052      2.33%     99.97% # Reads before turning the bus around for writes (Count)
system.mem_ctrl.rdPerTurnAround::18                67      0.03%    100.00% # Reads before turning the bus around for writes (Count)
system.mem_ctrl.rdPerTurnAround::19                 3      0.00%    100.00% # Reads before turning the bus around for writes (Count)
system.mem_ctrl.rdPerTurnAround::20                 1      0.00%    100.00% # Reads before turning the bus around for writes (Count)
system.mem_ctrl.rdPerTurnAround::21                 2      0.00%    100.00% # Reads before turning the bus around for writes (Count)
system.mem_ctrl.rdPerTurnAround::total         260020                       # Reads before turning the bus around for writes (Count)
system.mem_ctrl.wrPerTurnAround::samples       260020                       # Writes before turning the bus around for reads (Count)
system.mem_ctrl.wrPerTurnAround::mean       16.009338                       # Writes before turning the bus around for reads (Count)
system.mem_ctrl.wrPerTurnAround::gmean      16.009049                       # Writes before turning the bus around for reads (Count)
system.mem_ctrl.wrPerTurnAround::stdev       0.098316                       # Writes before turning the bus around for reads (Count)
system.mem_ctrl.wrPerTurnAround::16            257630     99.08%     99.08% # Writes before turning the bus around for reads (Count)
system.mem_ctrl.wrPerTurnAround::17              2367      0.91%     99.99% # Writes before turning the bus around for reads (Count)
system.mem_ctrl.wrPerTurnAround::18                 9      0.00%     99.99% # Writes before turning the bus around for reads (Count)
system.mem_ctrl.wrPerTurnAround::19                13      0.00%    100.00% # Writes before turning the bus around for reads (Count)
system.mem_ctrl.wrPerTurnAround::20                 1      0.00%    100.00% # Writes before turning the bus around for reads (Count)
system.mem_ctrl.wrPerTurnAround::total         260020                       # Writes before turning the bus around for reads (Count)
system.mem_ctrl.bytesReadWrQ                  1456768                       # Total number of bytes read from write queue (Byte)
system.mem_ctrl.bytesReadSys                266996992                       # Total read bytes from the system interface side (Byte)
system.mem_ctrl.bytesWrittenSys             266996992                       # Total written bytes from the system interface side (Byte)
system.mem_ctrl.avgRdBWSys               794232928.23120642                       # Average system read bandwidth in Byte/s ((Byte/Second))
system.mem_ctrl.avgWrBWSys               794232928.23120642                       # Average system write bandwidth in Byte/s ((Byte/Second))
system.mem_ctrl.totGap                   336169696000                       # Total gap between requests (Tick)
system.mem_ctrl.avgGap                       40290.45                       # Average gap between requests ((Tick/Count))
system.mem_ctrl.requestorReadBytes::caches.controllers1    265540224                       # Per-requestor bytes read from memory (Byte)
system.mem_ctrl.requestorWriteBytes::caches.controllers1    266415872                       # Per-requestor bytes write to memory (Byte)
system.mem_ctrl.requestorReadRate::caches.controllers1 789899496.960214614868                       # Per-requestor bytes read from memory rate ((Byte/Second))
system.mem_ctrl.requestorWriteRate::caches.controllers1 792504277.148673892021                       # Per-requestor bytes write to memory rate ((Byte/Second))
system.mem_ctrl.requestorReadAccesses::caches.controllers1      4171828                       # Per-requestor read serviced memory accesses (Count)
system.mem_ctrl.requestorWriteAccesses::caches.controllers1      4171828                       # Per-requestor write serviced memory accesses (Count)
system.mem_ctrl.requestorReadTotalLat::caches.controllers1 167597524000                       # Per-requestor read total memory access latency (Tick)
system.mem_ctrl.requestorWriteTotalLat::caches.controllers1 8322169553000                       # Per-requestor write total memory access latency (Tick)
system.mem_ctrl.requestorReadAvgLat::caches.controllers1     40173.64                       # Per-requestor read average memory access latency ((Tick/Count))
system.mem_ctrl.requestorWriteAvgLat::caches.controllers1   1994849.63                       # Per-requestor write average memory access latency ((Tick/Count))
system.mem_ctrl.dram.bytesRead::caches.controllers1    266996928                       # Number of bytes read from this memory (Byte)
system.mem_ctrl.dram.bytesRead::total       266996928                       # Number of bytes read from this memory (Byte)
system.mem_ctrl.dram.bytesWritten::caches.controllers1    266996992                       # Number of bytes written to this memory (Byte)
system.mem_ctrl.dram.bytesWritten::total    266996992                       # Number of bytes written to this memory (Byte)
system.mem_ctrl.dram.numReads::caches.controllers1      4171827                       # Number of read requests responded to by this memory (Count)
system.mem_ctrl.dram.numReads::total          4171827                       # Number of read requests responded to by this memory (Count)
system.mem_ctrl.dram.numWrites::caches.controllers1      4171828                       # Number of write requests responded to by this memory (Count)
system.mem_ctrl.dram.numWrites::total         4171828                       # Number of write requests responded to by this memory (Count)
system.mem_ctrl.dram.bwRead::caches.controllers1    794232738                       # Total read bandwidth from this memory ((Byte/Second))
system.mem_ctrl.dram.bwRead::total          794232738                       # Total read bandwidth from this memory ((Byte/Second))
system.mem_ctrl.dram.bwWrite::caches.controllers1    794232928                       # Write bandwidth from this memory ((Byte/Second))
system.mem_ctrl.dram.bwWrite::total         794232928                       # Write bandwidth from this memory ((Byte/Second))
system.mem_ctrl.dram.bwTotal::caches.controllers1   1588465666                       # Total bandwidth to/from this memory ((Byte/Second))
system.mem_ctrl.dram.bwTotal::total        1588465666                       # Total bandwidth to/from this memory ((Byte/Second))
system.mem_ctrl.dram.readBursts               4149066                       # Number of DRAM read bursts (Count)
system.mem_ctrl.dram.writeBursts              4162748                       # Number of DRAM write bursts (Count)
system.mem_ctrl.dram.perBankRdBursts::0        259454                       # Per bank write bursts (Count)
system.mem_ctrl.dram.perBankRdBursts::1        259554                       # Per bank write bursts (Count)
system.mem_ctrl.dram.perBankRdBursts::2        259762                       # Per bank write bursts (Count)
system.mem_ctrl.dram.perBankRdBursts::3        259723                       # Per bank write bursts (Count)
system.mem_ctrl.dram.perBankRdBursts::4        259165                       # Per bank write bursts (Count)
system.mem_ctrl.dram.perBankRdBursts::5        259336                       # Per bank write bursts (Count)
system.mem_ctrl.dram.perBankRdBursts::6        259179                       # Per bank write bursts (Count)
system.mem_ctrl.dram.perBankRdBursts::7        259166                       # Per bank write bursts (Count)
system.mem_ctrl.dram.perBankRdBursts::8        259343                       # Per bank write bursts (Count)
system.mem_ctrl.dram.perBankRdBursts::9        323076                       # Per bank write bursts (Count)
system.mem_ctrl.dram.perBankRdBursts::10       194472                       # Per bank write bursts (Count)
system.mem_ctrl.dram.perBankRdBursts::11       259739                       # Per bank write bursts (Count)
system.mem_ctrl.dram.perBankRdBursts::12       258834                       # Per bank write bursts (Count)
system.mem_ctrl.dram.perBankRdBursts::13       259791                       # Per bank write bursts (Count)
system.mem_ctrl.dram.perBankRdBursts::14       259353                       # Per bank write bursts (Count)
system.mem_ctrl.dram.perBankRdBursts::15       259119                       # Per bank write bursts (Count)
system.mem_ctrl.dram.perBankWrBursts::0        260532                       # Per bank write bursts (Count)
system.mem_ctrl.dram.perBankWrBursts::1        260359                       # Per bank write bursts (Count)
system.mem_ctrl.dram.perBankWrBursts::2        260354                       # Per bank write bursts (Count)
system.mem_ctrl.dram.perBankWrBursts::3        260509                       # Per bank write bursts (Count)
system.mem_ctrl.dram.perBankWrBursts::4        260005                       # Per bank write bursts (Count)
system.mem_ctrl.dram.perBankWrBursts::5        260148                       # Per bank write bursts (Count)
system.mem_ctrl.dram.perBankWrBursts::6        260160                       # Per bank write bursts (Count)
system.mem_ctrl.dram.perBankWrBursts::7        259973                       # Per bank write bursts (Count)
system.mem_ctrl.dram.perBankWrBursts::8        260175                       # Per bank write bursts (Count)
system.mem_ctrl.dram.perBankWrBursts::9        324415                       # Per bank write bursts (Count)
system.mem_ctrl.dram.perBankWrBursts::10       195139                       # Per bank write bursts (Count)
system.mem_ctrl.dram.perBankWrBursts::11       260441                       # Per bank write bursts (Count)
system.mem_ctrl.dram.perBankWrBursts::12       259749                       # Per bank write bursts (Count)
system.mem_ctrl.dram.perBankWrBursts::13       260532                       # Per bank write bursts (Count)
system.mem_ctrl.dram.perBankWrBursts::14       260227                       # Per bank write bursts (Count)
system.mem_ctrl.dram.perBankWrBursts::15       260030                       # Per bank write bursts (Count)
system.mem_ctrl.dram.totQLat              89802536500                       # Total ticks spent queuing (Tick)
system.mem_ctrl.dram.totBusLat            20745330000                       # Total ticks spent in databus transfers (Tick)
system.mem_ctrl.dram.totMemAccLat        167597524000                       # Total ticks spent from burst creation until serviced by the DRAM (Tick)
system.mem_ctrl.dram.avgQLat                 21644.04                       # Average queueing delay per DRAM burst ((Tick/Count))
system.mem_ctrl.dram.avgBusLat                5000.00                       # Average bus latency per DRAM burst ((Tick/Count))
system.mem_ctrl.dram.avgMemAccLat            40394.04                       # Average memory access latency per DRAM burst ((Tick/Count))
system.mem_ctrl.dram.readRowHits              1459811                       # Number of row buffer hits during reads (Count)
system.mem_ctrl.dram.writeRowHits             3251338                       # Number of row buffer hits during writes (Count)
system.mem_ctrl.dram.readRowHitRate             35.18                       # Row buffer hit rate for reads (Ratio)
system.mem_ctrl.dram.writeRowHitRate            78.11                       # Row buffer hit rate for writes (Ratio)
system.mem_ctrl.dram.bytesPerActivate::samples      3600670                       # Bytes accessed per row activation (Byte)
system.mem_ctrl.dram.bytesPerActivate::mean   147.738282                       # Bytes accessed per row activation (Byte)
system.mem_ctrl.dram.bytesPerActivate::gmean   121.535181                       # Bytes accessed per row activation (Byte)
system.mem_ctrl.dram.bytesPerActivate::stdev   101.584319                       # Bytes accessed per row activation (Byte)
system.mem_ctrl.dram.bytesPerActivate::0-127      1441910     40.05%     40.05% # Bytes accessed per row activation (Byte)
system.mem_ctrl.dram.bytesPerActivate::128-255      1507667     41.87%     81.92% # Bytes accessed per row activation (Byte)
system.mem_ctrl.dram.bytesPerActivate::256-383       483332     13.42%     95.34% # Bytes accessed per row activation (Byte)
system.mem_ctrl.dram.bytesPerActivate::384-511       123901      3.44%     98.78% # Bytes accessed per row activation (Byte)
system.mem_ctrl.dram.bytesPerActivate::512-639        32270      0.90%     99.68% # Bytes accessed per row activation (Byte)
system.mem_ctrl.dram.bytesPerActivate::640-767         8461      0.23%     99.91% # Bytes accessed per row activation (Byte)
system.mem_ctrl.dram.bytesPerActivate::768-895         2169      0.06%     99.97% # Bytes accessed per row activation (Byte)
system.mem_ctrl.dram.bytesPerActivate::896-1023          641      0.02%     99.99% # Bytes accessed per row activation (Byte)
system.mem_ctrl.dram.bytesPerActivate::1024-1151          319      0.01%    100.00% # Bytes accessed per row activation (Byte)
system.mem_ctrl.dram.bytesPerActivate::total      3600670                       # Bytes accessed per row activation (Byte)
system.mem_ctrl.dram.bytesRead              265540224                       # Total number of bytes read from DRAM (Byte)
system.mem_ctrl.dram.bytesWritten           266415872                       # Total number of bytes written to DRAM (Byte)
system.mem_ctrl.dram.avgRdBW               789.899497                       # Average DRAM read bandwidth in MiBytes/s ((Byte/Second))
system.mem_ctrl.dram.avgWrBW               792.504277                       # Average DRAM write bandwidth in MiBytes/s ((Byte/Second))
system.mem_ctrl.dram.peakBW                  12800.00                       # Theoretical peak bandwidth in MiByte/s ((Byte/Second))
system.mem_ctrl.dram.busUtil                    12.36                       # Data bus utilization in percentage (Ratio)
system.mem_ctrl.dram.busUtilRead                 6.17                       # Data bus utilization in percentage for reads (Ratio)
system.mem_ctrl.dram.busUtilWrite                6.19                       # Data bus utilization in percentage for writes (Ratio)
system.mem_ctrl.dram.pageHitRate                56.68                       # Row buffer hit rate, read and write combined (Ratio)
system.mem_ctrl.dram.power_state.pwrStateResidencyTicks::UNDEFINED 345073342000                       # Cumulative time (in ticks) in various power states (Tick)
system.mem_ctrl.dram.rank0.actEnergy      12702973920                       # Energy for activate commands per rank (pJ) (Joule)
system.mem_ctrl.dram.rank0.preEnergy       6751775580                       # Energy for precharge commands per rank (pJ) (Joule)
system.mem_ctrl.dram.rank0.readEnergy     14818113240                       # Energy for read commands per rank (pJ) (Joule)
system.mem_ctrl.dram.rank0.writeEnergy    10868342760                       # Energy for write commands per rank (pJ) (Joule)
system.mem_ctrl.dram.rank0.refreshEnergy 26537082000.000004                       # Energy for refresh commands per rank (pJ) (Joule)
system.mem_ctrl.dram.rank0.actBackEnergy 151380985320                       # Energy for active background per rank (pJ) (Joule)
system.mem_ctrl.dram.rank0.preBackEnergy   1611248160                       # Energy for precharge background per rank (pJ) (Joule)
system.mem_ctrl.dram.rank0.actPowerDownEnergy            0                       # Energy for active power-down per rank (pJ) (Joule)
system.mem_ctrl.dram.rank0.prePowerDownEnergy            0                       # Energy for precharge power-down per rank (pJ) (Joule)
system.mem_ctrl.dram.rank0.selfRefreshEnergy            0                       # Energy for self refresh per rank (pJ) (Joule)
system.mem_ctrl.dram.rank0.totalEnergy   224670520980                       # Total energy per rank (pJ) (Joule)
system.mem_ctrl.dram.rank0.averagePower    668.324854                       # Core power per rank (mW) (Watt)
system.mem_ctrl.dram.rank0.totalIdleTime            0                       # Total Idle time Per DRAM Rank (Tick)
system.mem_ctrl.dram.rank0.pwrStateTime::IDLE   2954680500                       # Time in different power states (Tick)
system.mem_ctrl.dram.rank0.pwrStateTime::REF  11225500000                       # Time in different power states (Tick)
system.mem_ctrl.dram.rank0.pwrStateTime::SREF            0                       # Time in different power states (Tick)
system.mem_ctrl.dram.rank0.pwrStateTime::PRE_PDN            0                       # Time in different power states (Tick)
system.mem_ctrl.dram.rank0.pwrStateTime::ACT 321991622750                       # Time in different power states (Tick)
system.mem_ctrl.dram.rank0.pwrStateTime::ACT_PDN            0                       # Time in different power states (Tick)
system.mem_ctrl.dram.rank1.actEnergy      13006152600                       # Energy for activate commands per rank (pJ) (Joule)
system.mem_ctrl.dram.rank1.preEnergy       6912922665                       # Energy for precharge commands per rank (pJ) (Joule)
system.mem_ctrl.dram.rank1.readEnergy     14806510740                       # Energy for read commands per rank (pJ) (Joule)
system.mem_ctrl.dram.rank1.writeEnergy    10861452360                       # Energy for write commands per rank (pJ) (Joule)
system.mem_ctrl.dram.rank1.refreshEnergy 26537082000.000004                       # Energy for refresh commands per rank (pJ) (Joule)
system.mem_ctrl.dram.rank1.actBackEnergy 151376437290                       # Energy for active background per rank (pJ) (Joule)
system.mem_ctrl.dram.rank1.preBackEnergy   1615088640                       # Energy for precharge background per rank (pJ) (Joule)
system.mem_ctrl.dram.rank1.actPowerDownEnergy            0                       # Energy for active power-down per rank (pJ) (Joule)
system.mem_ctrl.dram.rank1.prePowerDownEnergy            0                       # Energy for precharge power-down per rank (pJ) (Joule)
system.mem_ctrl.dram.rank1.selfRefreshEnergy            0                       # Energy for self refresh per rank (pJ) (Joule)
system.mem_ctrl.dram.rank1.totalEnergy   225115646295                       # Total energy per rank (pJ) (Joule)
system.mem_ctrl.dram.rank1.averagePower    669.648963                       # Core power per rank (mW) (Watt)
system.mem_ctrl.dram.rank1.totalIdleTime            0                       # Total Idle time Per DRAM Rank (Tick)
system.mem_ctrl.dram.rank1.pwrStateTime::IDLE   2956788000                       # Time in different power states (Tick)
system.mem_ctrl.dram.rank1.pwrStateTime::REF  11225500000                       # Time in different power states (Tick)
system.mem_ctrl.dram.rank1.pwrStateTime::SREF            0                       # Time in different power states (Tick)
system.mem_ctrl.dram.rank1.pwrStateTime::PRE_PDN            0                       # Time in different power states (Tick)
system.mem_ctrl.dram.rank1.pwrStateTime::ACT 321989542500                       # Time in different power states (Tick)
system.mem_ctrl.dram.rank1.pwrStateTime::ACT_PDN            0                       # Time in different power states (Tick)
system.mem_ctrl.power_state.pwrStateResidencyTicks::UNDEFINED 345073342000                       # Cumulative time (in ticks) in various power states (Tick)
system.workload.inst.arm                            0                       # number of arm instructions executed (Count)
system.workload.inst.quiesce                        0                       # number of quiesce instructions executed (Count)

---------- End Simulation Statistics   ----------
