
---------- Begin Simulation Statistics ----------
simSeconds                                   0.075660                       # Number of seconds simulated (Second)
simTicks                                  75659923000                       # Number of ticks simulated (Tick)
finalTick                                 75659923000                       # Number of ticks from beginning of simulation (restored from checkpoints and never reset) (Tick)
simFreq                                  1000000000000                       # The number of ticks per simulated second ((Tick/Second))
hostSeconds                                    210.86                       # Real time elapsed on the host (Second)
hostTickRate                                358821378                       # The number of ticks simulated per host second (ticks/s) ((Tick/Second))
hostMemory                                    9639680                       # Number of bytes of host memory used (Byte)
simInsts                                     46698355                       # Number of instructions simulated (Count)
simOps                                       83201955                       # Number of ops (including micro ops) simulated (Count)
hostInstRate                                   221469                       # Simulator instruction rate (inst/s) ((Count/Second))
hostOpRate                                     394590                       # Simulator op (including micro ops) rate (op/s) ((Count/Second))
system.caches.delayHistogram::bucket_size            8                       # delay histogram for all message (Unspecified)
system.caches.delayHistogram::max_bucket           79                       # delay histogram for all message (Unspecified)
system.caches.delayHistogram::samples         2181972                       # delay histogram for all message (Unspecified)
system.caches.delayHistogram::mean           0.300879                       # delay histogram for all message (Unspecified)
system.caches.delayHistogram::stdev          1.400825                       # delay histogram for all message (Unspecified)
system.caches.delayHistogram             |     2176953     99.77%     99.77% |        3279      0.15%     99.92% |        1156      0.05%     99.97% |         430      0.02%     99.99% |         100      0.00%    100.00% |          40      0.00%    100.00% |          10      0.00%    100.00% |           4      0.00%    100.00% |           0      0.00%    100.00% |           0      0.00%    100.00% # delay histogram for all message (Unspecified)
system.caches.delayHistogram::total           2181972                       # delay histogram for all message (Unspecified)
system.caches.m_outstandReqHistSeqr::bucket_size            2                       (Unspecified)
system.caches.m_outstandReqHistSeqr::max_bucket           19                       (Unspecified)
system.caches.m_outstandReqHistSeqr::samples     27875313                       (Unspecified)
system.caches.m_outstandReqHistSeqr::mean     1.674129                       (Unspecified)
system.caches.m_outstandReqHistSeqr::gmean     1.480427                       (Unspecified)
system.caches.m_outstandReqHistSeqr::stdev     0.971003                       (Unspecified)
system.caches.m_outstandReqHistSeqr      |    15193674     54.51%     54.51% |    11278570     40.46%     94.97% |     1267244      4.55%     99.51% |       84013      0.30%     99.81% |       24509      0.09%     99.90% |       16237      0.06%     99.96% |        6440      0.02%     99.98% |        2989      0.01%     99.99% |        1637      0.01%    100.00% |           0      0.00%    100.00% (Unspecified)
system.caches.m_outstandReqHistSeqr::total     27875313                       (Unspecified)
system.caches.m_latencyHistSeqr::bucket_size           64                       (Unspecified)
system.caches.m_latencyHistSeqr::max_bucket          639                       (Unspecified)
system.caches.m_latencyHistSeqr::samples     28182465                       (Unspecified)
system.caches.m_latencyHistSeqr::mean        2.705427                       (Unspecified)
system.caches.m_latencyHistSeqr::gmean       1.164576                       (Unspecified)
system.caches.m_latencyHistSeqr::stdev      10.680896                       (Unspecified)
system.caches.m_latencyHistSeqr          |    28041184     99.50%     99.50% |      101617      0.36%     99.86% |       29859      0.11%     99.97% |        5921      0.02%     99.99% |        2131      0.01%     99.99% |        1295      0.00%    100.00% |         241      0.00%    100.00% |         184      0.00%    100.00% |          33      0.00%    100.00% |           0      0.00%    100.00% (Unspecified)
system.caches.m_latencyHistSeqr::total       28182465                       (Unspecified)
system.caches.m_hitLatencyHistSeqr::bucket_size           64                       (Unspecified)
system.caches.m_hitLatencyHistSeqr::max_bucket          639                       (Unspecified)
system.caches.m_hitLatencyHistSeqr::samples     27091463                       (Unspecified)
system.caches.m_hitLatencyHistSeqr::mean     1.033174                       (Unspecified)
system.caches.m_hitLatencyHistSeqr::gmean     1.011982                       (Unspecified)
system.caches.m_hitLatencyHistSeqr::stdev     0.747213                       (Unspecified)
system.caches.m_hitLatencyHistSeqr       |    27091077    100.00%    100.00% |         330      0.00%    100.00% |          30      0.00%    100.00% |          12      0.00%    100.00% |           7      0.00%    100.00% |           3      0.00%    100.00% |           0      0.00%    100.00% |           4      0.00%    100.00% |           0      0.00%    100.00% |           0      0.00%    100.00% (Unspecified)
system.caches.m_hitLatencyHistSeqr::total     27091463                       (Unspecified)
system.caches.m_missLatencyHistSeqr::bucket_size           64                       (Unspecified)
system.caches.m_missLatencyHistSeqr::max_bucket          639                       (Unspecified)
system.caches.m_missLatencyHistSeqr::samples      1091002                       (Unspecified)
system.caches.m_missLatencyHistSeqr::mean    44.230342                       (Unspecified)
system.caches.m_missLatencyHistSeqr::gmean    38.087555                       (Unspecified)
system.caches.m_missLatencyHistSeqr::stdev    33.753533                       (Unspecified)
system.caches.m_missLatencyHistSeqr      |      950107     87.09%     87.09% |      101287      9.28%     96.37% |       29829      2.73%     99.10% |        5909      0.54%     99.65% |        2124      0.19%     99.84% |        1292      0.12%     99.96% |         241      0.02%     99.98% |         180      0.02%    100.00% |          33      0.00%    100.00% |           0      0.00%    100.00% (Unspecified)
system.caches.m_missLatencyHistSeqr::total      1091002                       (Unspecified)
system.caches.delayVCHist.vnet_1::bucket_size            2                       # delay histogram for vnet_1 (Unspecified)
system.caches.delayVCHist.vnet_1::max_bucket           19                       # delay histogram for vnet_1 (Unspecified)
system.caches.delayVCHist.vnet_1::samples      1091002                       # delay histogram for vnet_1 (Unspecified)
system.caches.delayVCHist.vnet_1::mean       0.036471                       # delay histogram for vnet_1 (Unspecified)
system.caches.delayVCHist.vnet_1::stdev      0.458700                       # delay histogram for vnet_1 (Unspecified)
system.caches.delayVCHist.vnet_1         |     1083041     99.27%     99.27% |        1576      0.14%     99.41% |        2044      0.19%     99.60% |        3257      0.30%     99.90% |        1025      0.09%     99.99% |          26      0.00%    100.00% |          15      0.00%    100.00% |           6      0.00%    100.00% |          10      0.00%    100.00% |           2      0.00%    100.00% # delay histogram for vnet_1 (Unspecified)
system.caches.delayVCHist.vnet_1::total       1091002                       # delay histogram for vnet_1 (Unspecified)
system.caches.delayVCHist.vnet_2::bucket_size            8                       # delay histogram for vnet_2 (Unspecified)
system.caches.delayVCHist.vnet_2::max_bucket           79                       # delay histogram for vnet_2 (Unspecified)
system.caches.delayVCHist.vnet_2::samples      1090970                       # delay histogram for vnet_2 (Unspecified)
system.caches.delayVCHist.vnet_2::mean       0.565295                       # delay histogram for vnet_2 (Unspecified)
system.caches.delayVCHist.vnet_2::stdev      1.890619                       # delay histogram for vnet_2 (Unspecified)
system.caches.delayVCHist.vnet_2         |     1087035     99.64%     99.64% |        2207      0.20%     99.84% |        1144      0.10%     99.95% |         430      0.04%     99.99% |         100      0.01%    100.00% |          40      0.00%    100.00% |          10      0.00%    100.00% |           4      0.00%    100.00% |           0      0.00%    100.00% |           0      0.00%    100.00% # delay histogram for vnet_2 (Unspecified)
system.caches.delayVCHist.vnet_2::total       1090970                       # delay histogram for vnet_2 (Unspecified)
system.caches.L1Cache_Controller.Load         8933736      0.00%      0.00% (Unspecified)
system.caches.L1Cache_Controller.Ifetch       8283063      0.00%      0.00% (Unspecified)
system.caches.L1Cache_Controller.Store       10965667      0.00%      0.00% (Unspecified)
system.caches.L1Cache_Controller.Data         1091002      0.00%      0.00% (Unspecified)
system.caches.L1Cache_Controller.Replacement      1090971      0.00%      0.00% (Unspecified)
system.caches.L1Cache_Controller.Writeback_Ack      1090970      0.00%      0.00% (Unspecified)
system.caches.L1Cache_Controller.I.Load        314716      0.00%      0.00% (Unspecified)
system.caches.L1Cache_Controller.I.Ifetch       555955      0.00%      0.00% (Unspecified)
system.caches.L1Cache_Controller.I.Store       220332      0.00%      0.00% (Unspecified)
system.caches.L1Cache_Controller.M.Load       8619020      0.00%      0.00% (Unspecified)
system.caches.L1Cache_Controller.M.Ifetch      7727108      0.00%      0.00% (Unspecified)
system.caches.L1Cache_Controller.M.Store     10745335      0.00%      0.00% (Unspecified)
system.caches.L1Cache_Controller.M.Replacement      1090971      0.00%      0.00% (Unspecified)
system.caches.L1Cache_Controller.MI.Writeback_Ack      1090970      0.00%      0.00% (Unspecified)
system.caches.L1Cache_Controller.IS.Data       870670      0.00%      0.00% (Unspecified)
system.caches.L1Cache_Controller.IM.Data       220332      0.00%      0.00% (Unspecified)
system.caches.Directory_Controller.GETX       1091002      0.00%      0.00% (Unspecified)
system.caches.Directory_Controller.PUTX       1090970      0.00%      0.00% (Unspecified)
system.caches.Directory_Controller.Memory_Data      1091002      0.00%      0.00% (Unspecified)
system.caches.Directory_Controller.Memory_Ack      1090970      0.00%      0.00% (Unspecified)
system.caches.Directory_Controller.I.GETX      1091002      0.00%      0.00% (Unspecified)
system.caches.Directory_Controller.M.PUTX      1090970      0.00%      0.00% (Unspecified)
system.caches.Directory_Controller.IM.Memory_Data      1091002      0.00%      0.00% (Unspecified)
system.caches.Directory_Controller.MI.Memory_Ack      1090970      0.00%      0.00% (Unspecified)
system.caches.MachineType.Directory.miss_mach_latency_hist_seqr::bucket_size           64                       (Unspecified)
system.caches.MachineType.Directory.miss_mach_latency_hist_seqr::max_bucket          639                       (Unspecified)
system.caches.MachineType.Directory.miss_mach_latency_hist_seqr::samples      1091002                       (Unspecified)
system.caches.MachineType.Directory.miss_mach_latency_hist_seqr::mean    44.230342                       (Unspecified)
system.caches.MachineType.Directory.miss_mach_latency_hist_seqr::gmean    38.087555                       (Unspecified)
system.caches.MachineType.Directory.miss_mach_latency_hist_seqr::stdev    33.753533                       (Unspecified)
system.caches.MachineType.Directory.miss_mach_latency_hist_seqr |      950107     87.09%     87.09% |      101287      9.28%     96.37% |       29829      2.73%     99.10% |        5909      0.54%     99.65% |        2124      0.19%     99.84% |        1292      0.12%     99.96% |         241      0.02%     99.98% |         180      0.02%    100.00% |          33      0.00%    100.00% |           0      0.00%    100.00% (Unspecified)
system.caches.MachineType.Directory.miss_mach_latency_hist_seqr::total      1091002                       (Unspecified)
system.caches.MachineType.Directory.miss_latency_hist_seqr.issue_to_initial_request::bucket_size            1                       (Unspecified)
system.caches.MachineType.Directory.miss_latency_hist_seqr.issue_to_initial_request::max_bucket            9                       (Unspecified)
system.caches.MachineType.Directory.miss_latency_hist_seqr.issue_to_initial_request::samples            1                       (Unspecified)
system.caches.MachineType.Directory.miss_latency_hist_seqr.issue_to_initial_request::stdev          nan                       (Unspecified)
system.caches.MachineType.Directory.miss_latency_hist_seqr.issue_to_initial_request |           1    100.00%    100.00% |           0      0.00%    100.00% |           0      0.00%    100.00% |           0      0.00%    100.00% |           0      0.00%    100.00% |           0      0.00%    100.00% |           0      0.00%    100.00% |           0      0.00%    100.00% |           0      0.00%    100.00% |           0      0.00%    100.00% (Unspecified)
system.caches.MachineType.Directory.miss_latency_hist_seqr.issue_to_initial_request::total            1                       (Unspecified)
system.caches.MachineType.Directory.miss_latency_hist_seqr.initial_to_forward::bucket_size            1                       (Unspecified)
system.caches.MachineType.Directory.miss_latency_hist_seqr.initial_to_forward::max_bucket            9                       (Unspecified)
system.caches.MachineType.Directory.miss_latency_hist_seqr.initial_to_forward::samples            1                       (Unspecified)
system.caches.MachineType.Directory.miss_latency_hist_seqr.initial_to_forward::stdev          nan                       (Unspecified)
system.caches.MachineType.Directory.miss_latency_hist_seqr.initial_to_forward |           1    100.00%    100.00% |           0      0.00%    100.00% |           0      0.00%    100.00% |           0      0.00%    100.00% |           0      0.00%    100.00% |           0      0.00%    100.00% |           0      0.00%    100.00% |           0      0.00%    100.00% |           0      0.00%    100.00% |           0      0.00%    100.00% (Unspecified)
system.caches.MachineType.Directory.miss_latency_hist_seqr.initial_to_forward::total            1                       (Unspecified)
system.caches.MachineType.Directory.miss_latency_hist_seqr.forward_to_first_response::bucket_size            1                       (Unspecified)
system.caches.MachineType.Directory.miss_latency_hist_seqr.forward_to_first_response::max_bucket            9                       (Unspecified)
system.caches.MachineType.Directory.miss_latency_hist_seqr.forward_to_first_response::samples            1                       (Unspecified)
system.caches.MachineType.Directory.miss_latency_hist_seqr.forward_to_first_response::stdev          nan                       (Unspecified)
system.caches.MachineType.Directory.miss_latency_hist_seqr.forward_to_first_response |           1    100.00%    100.00% |           0      0.00%    100.00% |           0      0.00%    100.00% |           0      0.00%    100.00% |           0      0.00%    100.00% |           0      0.00%    100.00% |           0      0.00%    100.00% |           0      0.00%    100.00% |           0      0.00%    100.00% |           0      0.00%    100.00% (Unspecified)
system.caches.MachineType.Directory.miss_latency_hist_seqr.forward_to_first_response::total            1                       (Unspecified)
system.caches.MachineType.Directory.miss_latency_hist_seqr.first_response_to_completion::bucket_size            8                       (Unspecified)
system.caches.MachineType.Directory.miss_latency_hist_seqr.first_response_to_completion::max_bucket           79                       (Unspecified)
system.caches.MachineType.Directory.miss_latency_hist_seqr.first_response_to_completion::samples            1                       (Unspecified)
system.caches.MachineType.Directory.miss_latency_hist_seqr.first_response_to_completion::mean           73                       (Unspecified)
system.caches.MachineType.Directory.miss_latency_hist_seqr.first_response_to_completion::gmean    73.000000                       (Unspecified)
system.caches.MachineType.Directory.miss_latency_hist_seqr.first_response_to_completion::stdev          nan                       (Unspecified)
system.caches.MachineType.Directory.miss_latency_hist_seqr.first_response_to_completion |           0      0.00%      0.00% |           0      0.00%      0.00% |           0      0.00%      0.00% |           0      0.00%      0.00% |           0      0.00%      0.00% |           0      0.00%      0.00% |           0      0.00%      0.00% |           0      0.00%      0.00% |           0      0.00%      0.00% |           1    100.00%    100.00% (Unspecified)
system.caches.MachineType.Directory.miss_latency_hist_seqr.first_response_to_completion::total            1                       (Unspecified)
system.caches.MachineType.Directory.incomplete_times_seqr      1091001                       (Unspecified)
system.caches.RequestType.LD.latency_hist_seqr::bucket_size           64                       (Unspecified)
system.caches.RequestType.LD.latency_hist_seqr::max_bucket          639                       (Unspecified)
system.caches.RequestType.LD.latency_hist_seqr::samples      8933736                       (Unspecified)
system.caches.RequestType.LD.latency_hist_seqr::mean     3.098487                       (Unspecified)
system.caches.RequestType.LD.latency_hist_seqr::gmean     1.154426                       (Unspecified)
system.caches.RequestType.LD.latency_hist_seqr::stdev    13.508233                       (Unspecified)
system.caches.RequestType.LD.latency_hist_seqr |     8856244     99.13%     99.13% |       54299      0.61%     99.74% |       16482      0.18%     99.92% |        4447      0.05%     99.97% |        1262      0.01%     99.99% |         734      0.01%    100.00% |         132      0.00%    100.00% |         110      0.00%    100.00% |          26      0.00%    100.00% |           0      0.00%    100.00% (Unspecified)
system.caches.RequestType.LD.latency_hist_seqr::total      8933736                       (Unspecified)
system.caches.RequestType.LD.hit_latency_hist_seqr::bucket_size           64                       (Unspecified)
system.caches.RequestType.LD.hit_latency_hist_seqr::max_bucket          639                       (Unspecified)
system.caches.RequestType.LD.hit_latency_hist_seqr::samples      8619020                       (Unspecified)
system.caches.RequestType.LD.hit_latency_hist_seqr::mean     1.027111                       (Unspecified)
system.caches.RequestType.LD.hit_latency_hist_seqr::gmean     1.005313                       (Unspecified)
system.caches.RequestType.LD.hit_latency_hist_seqr::stdev     0.889101                       (Unspecified)
system.caches.RequestType.LD.hit_latency_hist_seqr |     8618824    100.00%    100.00% |         161      0.00%    100.00% |          17      0.00%    100.00% |          11      0.00%    100.00% |           3      0.00%    100.00% |           1      0.00%    100.00% |           0      0.00%    100.00% |           3      0.00%    100.00% |           0      0.00%    100.00% |           0      0.00%    100.00% (Unspecified)
system.caches.RequestType.LD.hit_latency_hist_seqr::total      8619020                       (Unspecified)
system.caches.RequestType.LD.miss_latency_hist_seqr::bucket_size           64                       (Unspecified)
system.caches.RequestType.LD.miss_latency_hist_seqr::max_bucket          639                       (Unspecified)
system.caches.RequestType.LD.miss_latency_hist_seqr::samples       314716                       (Unspecified)
system.caches.RequestType.LD.miss_latency_hist_seqr::mean    59.826539                       (Unspecified)
system.caches.RequestType.LD.miss_latency_hist_seqr::gmean    50.973548                       (Unspecified)
system.caches.RequestType.LD.miss_latency_hist_seqr::stdev    42.691447                       (Unspecified)
system.caches.RequestType.LD.miss_latency_hist_seqr |      237420     75.44%     75.44% |       54138     17.20%     92.64% |       16465      5.23%     97.87% |        4436      1.41%     99.28% |        1259      0.40%     99.68% |         733      0.23%     99.92% |         132      0.04%     99.96% |         107      0.03%     99.99% |          26      0.01%    100.00% |           0      0.00%    100.00% (Unspecified)
system.caches.RequestType.LD.miss_latency_hist_seqr::total       314716                       (Unspecified)
system.caches.RequestType.ST.latency_hist_seqr::bucket_size           64                       (Unspecified)
system.caches.RequestType.ST.latency_hist_seqr::max_bucket          639                       (Unspecified)
system.caches.RequestType.ST.latency_hist_seqr::samples     10485016                       (Unspecified)
system.caches.RequestType.ST.latency_hist_seqr::mean     1.827729                       (Unspecified)
system.caches.RequestType.ST.latency_hist_seqr::gmean     1.095225                       (Unspecified)
system.caches.RequestType.ST.latency_hist_seqr::stdev     6.749232                       (Unspecified)
system.caches.RequestType.ST.latency_hist_seqr |    10454234     99.71%     99.71% |       26573      0.25%     99.96% |        3284      0.03%     99.99% |         432      0.00%    100.00% |         272      0.00%    100.00% |         166      0.00%    100.00% |          36      0.00%    100.00% |          17      0.00%    100.00% |           2      0.00%    100.00% |           0      0.00%    100.00% (Unspecified)
system.caches.RequestType.ST.latency_hist_seqr::total     10485016                       (Unspecified)
system.caches.RequestType.ST.hit_latency_hist_seqr::bucket_size           64                       (Unspecified)
system.caches.RequestType.ST.hit_latency_hist_seqr::max_bucket          639                       (Unspecified)
system.caches.RequestType.ST.hit_latency_hist_seqr::samples     10267660                       (Unspecified)
system.caches.RequestType.ST.hit_latency_hist_seqr::mean     1.049401                       (Unspecified)
system.caches.RequestType.ST.hit_latency_hist_seqr::gmean     1.018394                       (Unspecified)
system.caches.RequestType.ST.hit_latency_hist_seqr::stdev     0.788509                       (Unspecified)
system.caches.RequestType.ST.hit_latency_hist_seqr |    10267562    100.00%    100.00% |          86      0.00%    100.00% |           8      0.00%    100.00% |           0      0.00%    100.00% |           3      0.00%    100.00% |           1      0.00%    100.00% |           0      0.00%    100.00% |           0      0.00%    100.00% |           0      0.00%    100.00% |           0      0.00%    100.00% (Unspecified)
system.caches.RequestType.ST.hit_latency_hist_seqr::total     10267660                       (Unspecified)
system.caches.RequestType.ST.miss_latency_hist_seqr::bucket_size           64                       (Unspecified)
system.caches.RequestType.ST.miss_latency_hist_seqr::max_bucket          639                       (Unspecified)
system.caches.RequestType.ST.miss_latency_hist_seqr::samples       217356                       (Unspecified)
system.caches.RequestType.ST.miss_latency_hist_seqr::mean    38.595079                       (Unspecified)
system.caches.RequestType.ST.miss_latency_hist_seqr::gmean    34.014546                       (Unspecified)
system.caches.RequestType.ST.miss_latency_hist_seqr::stdev    28.063552                       (Unspecified)
system.caches.RequestType.ST.miss_latency_hist_seqr |      186672     85.88%     85.88% |       26487     12.19%     98.07% |        3276      1.51%     99.58% |         432      0.20%     99.78% |         269      0.12%     99.90% |         165      0.08%     99.97% |          36      0.02%     99.99% |          17      0.01%    100.00% |           2      0.00%    100.00% |           0      0.00%    100.00% (Unspecified)
system.caches.RequestType.ST.miss_latency_hist_seqr::total       217356                       (Unspecified)
system.caches.RequestType.IFETCH.latency_hist_seqr::bucket_size           64                       (Unspecified)
system.caches.RequestType.IFETCH.latency_hist_seqr::max_bucket          639                       (Unspecified)
system.caches.RequestType.IFETCH.latency_hist_seqr::samples      8283062                       (Unspecified)
system.caches.RequestType.IFETCH.latency_hist_seqr::mean     3.450078                       (Unspecified)
system.caches.RequestType.IFETCH.latency_hist_seqr::gmean     1.266869                       (Unspecified)
system.caches.RequestType.IFETCH.latency_hist_seqr::stdev    11.373670                       (Unspecified)
system.caches.RequestType.IFETCH.latency_hist_seqr |     8251937     99.62%     99.62% |       19105      0.23%     99.85% |        9899      0.12%     99.97% |        1020      0.01%     99.99% |         579      0.01%     99.99% |         389      0.00%    100.00% |          72      0.00%    100.00% |          56      0.00%    100.00% |           5      0.00%    100.00% |           0      0.00%    100.00% (Unspecified)
system.caches.RequestType.IFETCH.latency_hist_seqr::total      8283062                       (Unspecified)
system.caches.RequestType.IFETCH.hit_latency_hist_seqr::bucket_size           64                       (Unspecified)
system.caches.RequestType.IFETCH.hit_latency_hist_seqr::max_bucket          639                       (Unspecified)
system.caches.RequestType.IFETCH.hit_latency_hist_seqr::samples      7727108                       (Unspecified)
system.caches.RequestType.IFETCH.hit_latency_hist_seqr::mean     1.004212                       (Unspecified)
system.caches.RequestType.IFETCH.hit_latency_hist_seqr::gmean     1.000573                       (Unspecified)
system.caches.RequestType.IFETCH.hit_latency_hist_seqr::stdev     0.464630                       (Unspecified)
system.caches.RequestType.IFETCH.hit_latency_hist_seqr |     7727029    100.00%    100.00% |          70      0.00%    100.00% |           5      0.00%    100.00% |           1      0.00%    100.00% |           1      0.00%    100.00% |           1      0.00%    100.00% |           0      0.00%    100.00% |           1      0.00%    100.00% |           0      0.00%    100.00% |           0      0.00%    100.00% (Unspecified)
system.caches.RequestType.IFETCH.hit_latency_hist_seqr::total      7727108                       (Unspecified)
system.caches.RequestType.IFETCH.miss_latency_hist_seqr::bucket_size           64                       (Unspecified)
system.caches.RequestType.IFETCH.miss_latency_hist_seqr::max_bucket          639                       (Unspecified)
system.caches.RequestType.IFETCH.miss_latency_hist_seqr::samples       555954                       (Unspecified)
system.caches.RequestType.IFETCH.miss_latency_hist_seqr::mean    37.444744                       (Unspecified)
system.caches.RequestType.IFETCH.miss_latency_hist_seqr::gmean    33.661023                       (Unspecified)
system.caches.RequestType.IFETCH.miss_latency_hist_seqr::stdev    26.182712                       (Unspecified)
system.caches.RequestType.IFETCH.miss_latency_hist_seqr |      524908     94.42%     94.42% |       19035      3.42%     97.84% |        9894      1.78%     99.62% |        1019      0.18%     99.80% |         578      0.10%     99.91% |         388      0.07%     99.98% |          72      0.01%     99.99% |          55      0.01%    100.00% |           5      0.00%    100.00% |           0      0.00%    100.00% (Unspecified)
system.caches.RequestType.IFETCH.miss_latency_hist_seqr::total       555954                       (Unspecified)
system.caches.RequestType.RMW_Read.latency_hist_seqr::bucket_size           64                       (Unspecified)
system.caches.RequestType.RMW_Read.latency_hist_seqr::max_bucket          639                       (Unspecified)
system.caches.RequestType.RMW_Read.latency_hist_seqr::samples       480651                       (Unspecified)
system.caches.RequestType.RMW_Read.latency_hist_seqr::mean     1.713439                       (Unspecified)
system.caches.RequestType.RMW_Read.latency_hist_seqr::gmean     1.225695                       (Unspecified)
system.caches.RequestType.RMW_Read.latency_hist_seqr::stdev     6.657128                       (Unspecified)
system.caches.RequestType.RMW_Read.latency_hist_seqr |      478769     99.61%     99.61% |        1640      0.34%     99.95% |         194      0.04%     99.99% |          22      0.00%     99.99% |          18      0.00%    100.00% |           6      0.00%    100.00% |           1      0.00%    100.00% |           1      0.00%    100.00% |           0      0.00%    100.00% |           0      0.00%    100.00% (Unspecified)
system.caches.RequestType.RMW_Read.latency_hist_seqr::total       480651                       (Unspecified)
system.caches.RequestType.RMW_Read.hit_latency_hist_seqr::bucket_size           16                       (Unspecified)
system.caches.RequestType.RMW_Read.hit_latency_hist_seqr::max_bucket          159                       (Unspecified)
system.caches.RequestType.RMW_Read.hit_latency_hist_seqr::samples       477675                       (Unspecified)
system.caches.RequestType.RMW_Read.hit_latency_hist_seqr::mean     1.262302                       (Unspecified)
system.caches.RequestType.RMW_Read.hit_latency_hist_seqr::gmean     1.195834                       (Unspecified)
system.caches.RequestType.RMW_Read.hit_latency_hist_seqr::stdev     0.687777                       (Unspecified)
system.caches.RequestType.RMW_Read.hit_latency_hist_seqr |      477628     99.99%     99.99% |          20      0.00%     99.99% |           8      0.00%    100.00% |           6      0.00%    100.00% |           6      0.00%    100.00% |           3      0.00%    100.00% |           3      0.00%    100.00% |           1      0.00%    100.00% |           0      0.00%    100.00% |           0      0.00%    100.00% (Unspecified)
system.caches.RequestType.RMW_Read.hit_latency_hist_seqr::total       477675                       (Unspecified)
system.caches.RequestType.RMW_Read.miss_latency_hist_seqr::bucket_size           64                       (Unspecified)
system.caches.RequestType.RMW_Read.miss_latency_hist_seqr::max_bucket          639                       (Unspecified)
system.caches.RequestType.RMW_Read.miss_latency_hist_seqr::samples         2976                       (Unspecified)
system.caches.RequestType.RMW_Read.miss_latency_hist_seqr::mean    74.125000                       (Unspecified)
system.caches.RequestType.RMW_Read.miss_latency_hist_seqr::gmean    64.224947                       (Unspecified)
system.caches.RequestType.RMW_Read.miss_latency_hist_seqr::stdev    42.499619                       (Unspecified)
system.caches.RequestType.RMW_Read.miss_latency_hist_seqr |        1107     37.20%     37.20% |        1627     54.67%     91.87% |         194      6.52%     98.39% |          22      0.74%     99.13% |          18      0.60%     99.73% |           6      0.20%     99.93% |           1      0.03%     99.97% |           1      0.03%    100.00% |           0      0.00%    100.00% |           0      0.00%    100.00% (Unspecified)
system.caches.RequestType.RMW_Read.miss_latency_hist_seqr::total         2976                       (Unspecified)
system.caches.RequestTypeMachineType.LD.Directory.miss_type_mach_latency_hist_seqr::bucket_size           64                       (Unspecified)
system.caches.RequestTypeMachineType.LD.Directory.miss_type_mach_latency_hist_seqr::max_bucket          639                       (Unspecified)
system.caches.RequestTypeMachineType.LD.Directory.miss_type_mach_latency_hist_seqr::samples       314716                       (Unspecified)
system.caches.RequestTypeMachineType.LD.Directory.miss_type_mach_latency_hist_seqr::mean    59.826539                       (Unspecified)
system.caches.RequestTypeMachineType.LD.Directory.miss_type_mach_latency_hist_seqr::gmean    50.973548                       (Unspecified)
system.caches.RequestTypeMachineType.LD.Directory.miss_type_mach_latency_hist_seqr::stdev    42.691447                       (Unspecified)
system.caches.RequestTypeMachineType.LD.Directory.miss_type_mach_latency_hist_seqr |      237420     75.44%     75.44% |       54138     17.20%     92.64% |       16465      5.23%     97.87% |        4436      1.41%     99.28% |        1259      0.40%     99.68% |         733      0.23%     99.92% |         132      0.04%     99.96% |         107      0.03%     99.99% |          26      0.01%    100.00% |           0      0.00%    100.00% (Unspecified)
system.caches.RequestTypeMachineType.LD.Directory.miss_type_mach_latency_hist_seqr::total       314716                       (Unspecified)
system.caches.RequestTypeMachineType.ST.Directory.miss_type_mach_latency_hist_seqr::bucket_size           64                       (Unspecified)
system.caches.RequestTypeMachineType.ST.Directory.miss_type_mach_latency_hist_seqr::max_bucket          639                       (Unspecified)
system.caches.RequestTypeMachineType.ST.Directory.miss_type_mach_latency_hist_seqr::samples       217356                       (Unspecified)
system.caches.RequestTypeMachineType.ST.Directory.miss_type_mach_latency_hist_seqr::mean    38.595079                       (Unspecified)
system.caches.RequestTypeMachineType.ST.Directory.miss_type_mach_latency_hist_seqr::gmean    34.014546                       (Unspecified)
system.caches.RequestTypeMachineType.ST.Directory.miss_type_mach_latency_hist_seqr::stdev    28.063552                       (Unspecified)
system.caches.RequestTypeMachineType.ST.Directory.miss_type_mach_latency_hist_seqr |      186672     85.88%     85.88% |       26487     12.19%     98.07% |        3276      1.51%     99.58% |         432      0.20%     99.78% |         269      0.12%     99.90% |         165      0.08%     99.97% |          36      0.02%     99.99% |          17      0.01%    100.00% |           2      0.00%    100.00% |           0      0.00%    100.00% (Unspecified)
system.caches.RequestTypeMachineType.ST.Directory.miss_type_mach_latency_hist_seqr::total       217356                       (Unspecified)
system.caches.RequestTypeMachineType.IFETCH.Directory.miss_type_mach_latency_hist_seqr::bucket_size           64                       (Unspecified)
system.caches.RequestTypeMachineType.IFETCH.Directory.miss_type_mach_latency_hist_seqr::max_bucket          639                       (Unspecified)
system.caches.RequestTypeMachineType.IFETCH.Directory.miss_type_mach_latency_hist_seqr::samples       555954                       (Unspecified)
system.caches.RequestTypeMachineType.IFETCH.Directory.miss_type_mach_latency_hist_seqr::mean    37.444744                       (Unspecified)
system.caches.RequestTypeMachineType.IFETCH.Directory.miss_type_mach_latency_hist_seqr::gmean    33.661023                       (Unspecified)
system.caches.RequestTypeMachineType.IFETCH.Directory.miss_type_mach_latency_hist_seqr::stdev    26.182712                       (Unspecified)
system.caches.RequestTypeMachineType.IFETCH.Directory.miss_type_mach_latency_hist_seqr |      524908     94.42%     94.42% |       19035      3.42%     97.84% |        9894      1.78%     99.62% |        1019      0.18%     99.80% |         578      0.10%     99.91% |         388      0.07%     99.98% |          72      0.01%     99.99% |          55      0.01%    100.00% |           5      0.00%    100.00% |           0      0.00%    100.00% (Unspecified)
system.caches.RequestTypeMachineType.IFETCH.Directory.miss_type_mach_latency_hist_seqr::total       555954                       (Unspecified)
system.caches.RequestTypeMachineType.RMW_Read.Directory.miss_type_mach_latency_hist_seqr::bucket_size           64                       (Unspecified)
system.caches.RequestTypeMachineType.RMW_Read.Directory.miss_type_mach_latency_hist_seqr::max_bucket          639                       (Unspecified)
system.caches.RequestTypeMachineType.RMW_Read.Directory.miss_type_mach_latency_hist_seqr::samples         2976                       (Unspecified)
system.caches.RequestTypeMachineType.RMW_Read.Directory.miss_type_mach_latency_hist_seqr::mean    74.125000                       (Unspecified)
system.caches.RequestTypeMachineType.RMW_Read.Directory.miss_type_mach_latency_hist_seqr::gmean    64.224947                       (Unspecified)
system.caches.RequestTypeMachineType.RMW_Read.Directory.miss_type_mach_latency_hist_seqr::stdev    42.499619                       (Unspecified)
system.caches.RequestTypeMachineType.RMW_Read.Directory.miss_type_mach_latency_hist_seqr |        1107     37.20%     37.20% |        1627     54.67%     91.87% |         194      6.52%     98.39% |          22      0.74%     99.13% |          18      0.60%     99.73% |           6      0.20%     99.93% |           1      0.03%     99.97% |           1      0.03%    100.00% |           0      0.00%    100.00% |           0      0.00%    100.00% (Unspecified)
system.caches.RequestTypeMachineType.RMW_Read.Directory.miss_type_mach_latency_hist_seqr::total         2976                       (Unspecified)
system.caches.controllers0.delayHistogram::samples      2181972                       # delay_histogram (Unspecified)
system.caches.controllers0.delayHistogram::mean     0.300879                       # delay_histogram (Unspecified)
system.caches.controllers0.delayHistogram::stdev     1.400825                       # delay_histogram (Unspecified)
system.caches.controllers0.delayHistogram::0-7      2176953     99.77%     99.77% # delay_histogram (Unspecified)
system.caches.controllers0.delayHistogram::8-15         3279      0.15%     99.92% # delay_histogram (Unspecified)
system.caches.controllers0.delayHistogram::16-23         1156      0.05%     99.97% # delay_histogram (Unspecified)
system.caches.controllers0.delayHistogram::24-31          430      0.02%     99.99% # delay_histogram (Unspecified)
system.caches.controllers0.delayHistogram::32-39          100      0.00%    100.00% # delay_histogram (Unspecified)
system.caches.controllers0.delayHistogram::40-47           40      0.00%    100.00% # delay_histogram (Unspecified)
system.caches.controllers0.delayHistogram::48-55           10      0.00%    100.00% # delay_histogram (Unspecified)
system.caches.controllers0.delayHistogram::56-63            4      0.00%    100.00% # delay_histogram (Unspecified)
system.caches.controllers0.delayHistogram::total      2181972                       # delay_histogram (Unspecified)
system.caches.controllers0.cacheMemory.m_demand_hits     27091463                       # Number of cache demand hits (Unspecified)
system.caches.controllers0.cacheMemory.m_demand_misses      1091003                       # Number of cache demand misses (Unspecified)
system.caches.controllers0.cacheMemory.m_demand_accesses     28182466                       # Number of cache demand accesses (Unspecified)
system.caches.controllers0.forwardToCache.m_buf_msgs     0.014419                       # Average number of messages in buffer (Unspecified)
system.caches.controllers0.forwardToCache.m_stall_time  5201.350416                       # Average number of cycles messages are stalled in this MB (Unspecified)
system.caches.controllers0.mandatoryQueue.m_buf_msgs     0.390387                       # Average number of messages in buffer (Unspecified)
system.caches.controllers0.mandatoryQueue.m_stall_time  1070.662152                       # Average number of cycles messages are stalled in this MB (Unspecified)
system.caches.controllers0.power_state.pwrStateResidencyTicks::UNDEFINED  75659923000                       # Cumulative time (in ticks) in various power states (Tick)
system.caches.controllers0.requestFromCache.m_buf_msgs     0.057678                       # Average number of messages in buffer (Unspecified)
system.caches.controllers0.requestFromCache.m_stall_time  1999.999921                       # Average number of cycles messages are stalled in this MB (Unspecified)
system.caches.controllers0.responseToCache.m_buf_msgs     0.014420                       # Average number of messages in buffer (Unspecified)
system.caches.controllers0.responseToCache.m_stall_time  5023.026999                       # Average number of cycles messages are stalled in this MB (Unspecified)
system.caches.controllers1.forwardFromDir.m_buf_msgs     0.014419                       # Average number of messages in buffer (Unspecified)
system.caches.controllers1.forwardFromDir.m_stall_time   999.989109                       # Average number of cycles messages are stalled in this MB (Unspecified)
system.caches.controllers1.power_state.pwrStateResidencyTicks::UNDEFINED  75659923000                       # Cumulative time (in ticks) in various power states (Tick)
system.caches.controllers1.requestToDir.m_buf_msgs     0.028839                       # Average number of messages in buffer (Unspecified)
system.caches.controllers1.requestToDir.m_stall_time  9881.163466                       # Average number of cycles messages are stalled in this MB (Unspecified)
system.caches.controllers1.requestToMemory.m_buf_msgs     0.028861                       # Average number of messages in buffer (Unspecified)
system.caches.controllers1.requestToMemory.m_stall_time  1000.096987                       # Average number of cycles messages are stalled in this MB (Unspecified)
system.caches.controllers1.responseFromDir.m_buf_msgs     0.014420                       # Average number of messages in buffer (Unspecified)
system.caches.controllers1.responseFromDir.m_stall_time   999.999088                       # Average number of cycles messages are stalled in this MB (Unspecified)
system.caches.controllers1.responseFromMemory.m_buf_msgs     0.030392                       # Average number of messages in buffer (Unspecified)
system.caches.controllers1.responseFromMemory.m_stall_time   999.999101                       # Average number of cycles messages are stalled in this MB (Unspecified)
system.caches.network.msg_count.Control       2182004                       (Unspecified)
system.caches.network.msg_byte.Control       17456032                       (Unspecified)
system.caches.network.msg_count.Data          2181941                       (Unspecified)
system.caches.network.msg_byte.Data         157099752                       (Unspecified)
system.caches.network.msg_count.Response_Data      2182004                       (Unspecified)
system.caches.network.msg_byte.Response_Data    157104288                       (Unspecified)
system.caches.network.msg_count.Writeback_Control      2181940                       (Unspecified)
system.caches.network.msg_byte.Writeback_Control     17455520                       (Unspecified)
system.caches.network.int_link_buffers2.m_buf_msgs     0.028839                       # Average number of messages in buffer (Unspecified)
system.caches.network.int_link_buffers2.m_stall_time  7881.163863                       # Average number of cycles messages are stalled in this MB (Unspecified)
system.caches.network.int_link_buffers8.m_buf_msgs     0.014419                       # Average number of messages in buffer (Unspecified)
system.caches.network.int_link_buffers8.m_stall_time  3201.372383                       # Average number of cycles messages are stalled in this MB (Unspecified)
system.caches.network.int_link_buffers9.m_buf_msgs     0.014420                       # Average number of messages in buffer (Unspecified)
system.caches.network.int_link_buffers9.m_stall_time  3023.029008                       # Average number of cycles messages are stalled in this MB (Unspecified)
system.caches.network.power_state.pwrStateResidencyTicks::UNDEFINED  75659923000                       # Cumulative time (in ticks) in various power states (Tick)
system.caches.network.routers0.percent_links_utilized     7.209802                       (Unspecified)
system.caches.network.routers0.msg_count.Control::2      1091002                       (Unspecified)
system.caches.network.routers0.msg_bytes.Control::2      8728016                       (Unspecified)
system.caches.network.routers0.msg_count.Data::2      1090971                       (Unspecified)
system.caches.network.routers0.msg_bytes.Data::2     78549912                       (Unspecified)
system.caches.network.routers0.msg_count.Response_Data::4      1091002                       (Unspecified)
system.caches.network.routers0.msg_bytes.Response_Data::4     78552144                       (Unspecified)
system.caches.network.routers0.msg_count.Writeback_Control::3      1090970                       (Unspecified)
system.caches.network.routers0.msg_bytes.Writeback_Control::3      8727760                       (Unspecified)
system.caches.network.routers0.port_buffers3.m_buf_msgs     0.014419                       # Average number of messages in buffer (Unspecified)
system.caches.network.routers0.port_buffers3.m_stall_time  4201.361413                       # Average number of cycles messages are stalled in this MB (Unspecified)
system.caches.network.routers0.port_buffers4.m_buf_msgs     0.014420                       # Average number of messages in buffer (Unspecified)
system.caches.network.routers0.port_buffers4.m_stall_time  4023.028017                       # Average number of cycles messages are stalled in this MB (Unspecified)
system.caches.network.routers0.port_buffers7.m_buf_msgs     0.098240                       # Average number of messages in buffer (Unspecified)
system.caches.network.routers0.port_buffers7.m_stall_time  6881.164021                       # Average number of cycles messages are stalled in this MB (Unspecified)
system.caches.network.routers0.power_state.pwrStateResidencyTicks::UNDEFINED  75659923000                       # Cumulative time (in ticks) in various power states (Tick)
system.caches.network.routers0.throttle00.link_utilization     7.209886                       (Unspecified)
system.caches.network.routers0.throttle00.msg_count.Response_Data::4      1091002                       (Unspecified)
system.caches.network.routers0.throttle00.msg_bytes.Response_Data::4     78552144                       (Unspecified)
system.caches.network.routers0.throttle00.msg_count.Writeback_Control::3      1090970                       (Unspecified)
system.caches.network.routers0.throttle00.msg_bytes.Writeback_Control::3      8727760                       (Unspecified)
system.caches.network.routers0.throttle01.link_utilization     7.209718                       (Unspecified)
system.caches.network.routers0.throttle01.msg_count.Control::2      1091002                       (Unspecified)
system.caches.network.routers0.throttle01.msg_bytes.Control::2      8728016                       (Unspecified)
system.caches.network.routers0.throttle01.msg_count.Data::2      1090971                       (Unspecified)
system.caches.network.routers0.throttle01.msg_bytes.Data::2     78549912                       (Unspecified)
system.caches.network.routers1.percent_links_utilized     7.209801                       (Unspecified)
system.caches.network.routers1.msg_count.Control::2      1091002                       (Unspecified)
system.caches.network.routers1.msg_bytes.Control::2      8728016                       (Unspecified)
system.caches.network.routers1.msg_count.Data::2      1090970                       (Unspecified)
system.caches.network.routers1.msg_bytes.Data::2     78549840                       (Unspecified)
system.caches.network.routers1.msg_count.Response_Data::4      1091002                       (Unspecified)
system.caches.network.routers1.msg_bytes.Response_Data::4     78552144                       (Unspecified)
system.caches.network.routers1.msg_count.Writeback_Control::3      1090970                       (Unspecified)
system.caches.network.routers1.msg_bytes.Writeback_Control::3      8727760                       (Unspecified)
system.caches.network.routers1.port_buffers2.m_buf_msgs     0.028839                       # Average number of messages in buffer (Unspecified)
system.caches.network.routers1.port_buffers2.m_stall_time  8881.163678                       # Average number of cycles messages are stalled in this MB (Unspecified)
system.caches.network.routers1.port_buffers6.m_buf_msgs     0.018495                       # Average number of messages in buffer (Unspecified)
system.caches.network.routers1.port_buffers6.m_stall_time  2201.383327                       # Average number of cycles messages are stalled in this MB (Unspecified)
system.caches.network.routers1.port_buffers7.m_buf_msgs     0.014683                       # Average number of messages in buffer (Unspecified)
system.caches.network.routers1.port_buffers7.m_stall_time  2023.029973                       # Average number of cycles messages are stalled in this MB (Unspecified)
system.caches.network.routers1.power_state.pwrStateResidencyTicks::UNDEFINED  75659923000                       # Cumulative time (in ticks) in various power states (Tick)
system.caches.network.routers1.throttle00.link_utilization     7.209717                       (Unspecified)
system.caches.network.routers1.throttle00.msg_count.Control::2      1091002                       (Unspecified)
system.caches.network.routers1.throttle00.msg_bytes.Control::2      8728016                       (Unspecified)
system.caches.network.routers1.throttle00.msg_count.Data::2      1090970                       (Unspecified)
system.caches.network.routers1.throttle00.msg_bytes.Data::2     78549840                       (Unspecified)
system.caches.network.routers1.throttle01.link_utilization     7.209886                       (Unspecified)
system.caches.network.routers1.throttle01.msg_count.Response_Data::4      1091002                       (Unspecified)
system.caches.network.routers1.throttle01.msg_bytes.Response_Data::4     78552144                       (Unspecified)
system.caches.network.routers1.throttle01.msg_count.Writeback_Control::3      1090970                       (Unspecified)
system.caches.network.routers1.throttle01.msg_bytes.Writeback_Control::3      8727760                       (Unspecified)
system.caches.power_state.pwrStateResidencyTicks::UNDEFINED  75659923000                       # Cumulative time (in ticks) in various power states (Tick)
system.caches.sequencers.power_state.pwrStateResidencyTicks::UNDEFINED  75659923000                       # Cumulative time (in ticks) in various power states (Tick)
system.caches.sys_port_proxy.power_state.pwrStateResidencyTicks::UNDEFINED  75659923000                       # Cumulative time (in ticks) in various power states (Tick)
system.clk_domain.clock                          1000                       # Clock period in ticks (Tick)
system.clk_domain.voltage_domain.voltage            1                       # Voltage in Volts (Volt)
system.cpu.numCycles                         75659924                       # Number of cpu cycles simulated (Cycle)
system.cpu.numWorkItemsStarted                      0                       # Number of work items this cpu started (Count)
system.cpu.numWorkItemsCompleted                    0                       # Number of work items this cpu completed (Count)
system.cpu.instsAdded                        95666560                       # Number of instructions added to the IQ (excludes non-spec) (Count)
system.cpu.nonSpecInstsAdded                   918668                       # Number of non-speculative instructions added to the IQ (Count)
system.cpu.instsIssued                       92488583                       # Number of instructions issued (Count)
system.cpu.squashedInstsIssued                   1443                       # Number of squashed instructions issued (Count)
system.cpu.squashedInstsExamined             13383253                       # Number of squashed instructions iterated over during squash; mainly for profiling (Count)
system.cpu.squashedOperandsExamined          15942236                       # Number of squashed operands that are examined and possibly removed from graph (Count)
system.cpu.squashedNonSpecRemoved                1028                       # Number of squashed non-spec instructions that were removed (Count)
system.cpu.numIssuedDist::samples            71565714                       # Number of insts issued each cycle (Count)
system.cpu.numIssuedDist::mean               1.292359                       # Number of insts issued each cycle (Count)
system.cpu.numIssuedDist::stdev              1.825353                       # Number of insts issued each cycle (Count)
system.cpu.numIssuedDist::underflows                0      0.00%      0.00% # Number of insts issued each cycle (Count)
system.cpu.numIssuedDist::0                  38507079     53.81%     53.81% # Number of insts issued each cycle (Count)
system.cpu.numIssuedDist::1                  10516859     14.70%     68.50% # Number of insts issued each cycle (Count)
system.cpu.numIssuedDist::2                   6780210      9.47%     77.98% # Number of insts issued each cycle (Count)
system.cpu.numIssuedDist::3                   5154189      7.20%     85.18% # Number of insts issued each cycle (Count)
system.cpu.numIssuedDist::4                   3749873      5.24%     90.42% # Number of insts issued each cycle (Count)
system.cpu.numIssuedDist::5                   4135286      5.78%     96.20% # Number of insts issued each cycle (Count)
system.cpu.numIssuedDist::6                   1962772      2.74%     98.94% # Number of insts issued each cycle (Count)
system.cpu.numIssuedDist::7                    579385      0.81%     99.75% # Number of insts issued each cycle (Count)
system.cpu.numIssuedDist::8                    180061      0.25%    100.00% # Number of insts issued each cycle (Count)
system.cpu.numIssuedDist::overflows                 0      0.00%    100.00% # Number of insts issued each cycle (Count)
system.cpu.numIssuedDist::min_value                 0                       # Number of insts issued each cycle (Count)
system.cpu.numIssuedDist::max_value                 8                       # Number of insts issued each cycle (Count)
system.cpu.numIssuedDist::total              71565714                       # Number of insts issued each cycle (Count)
system.cpu.statFuBusy::No_OpClass                   0      0.00%      0.00% # attempts to use FU when none available (Count)
system.cpu.statFuBusy::IntAlu                   43618     19.54%     19.54% # attempts to use FU when none available (Count)
system.cpu.statFuBusy::IntMult                      0      0.00%     19.54% # attempts to use FU when none available (Count)
system.cpu.statFuBusy::IntDiv                       0      0.00%     19.54% # attempts to use FU when none available (Count)
system.cpu.statFuBusy::FloatAdd                     0      0.00%     19.54% # attempts to use FU when none available (Count)
system.cpu.statFuBusy::FloatCmp                     0      0.00%     19.54% # attempts to use FU when none available (Count)
system.cpu.statFuBusy::FloatCvt                     0      0.00%     19.54% # attempts to use FU when none available (Count)
system.cpu.statFuBusy::FloatMult                    0      0.00%     19.54% # attempts to use FU when none available (Count)
system.cpu.statFuBusy::FloatMultAcc                 0      0.00%     19.54% # attempts to use FU when none available (Count)
system.cpu.statFuBusy::FloatDiv                     0      0.00%     19.54% # attempts to use FU when none available (Count)
system.cpu.statFuBusy::FloatMisc                    0      0.00%     19.54% # attempts to use FU when none available (Count)
system.cpu.statFuBusy::FloatSqrt                    0      0.00%     19.54% # attempts to use FU when none available (Count)
system.cpu.statFuBusy::SimdAdd                      1      0.00%     19.54% # attempts to use FU when none available (Count)
system.cpu.statFuBusy::SimdAddAcc                   0      0.00%     19.54% # attempts to use FU when none available (Count)
system.cpu.statFuBusy::SimdAlu                     39      0.02%     19.56% # attempts to use FU when none available (Count)
system.cpu.statFuBusy::SimdCmp                      0      0.00%     19.56% # attempts to use FU when none available (Count)
system.cpu.statFuBusy::SimdCvt                    131      0.06%     19.62% # attempts to use FU when none available (Count)
system.cpu.statFuBusy::SimdMisc                     4      0.00%     19.62% # attempts to use FU when none available (Count)
system.cpu.statFuBusy::SimdMult                     0      0.00%     19.62% # attempts to use FU when none available (Count)
system.cpu.statFuBusy::SimdMultAcc                  0      0.00%     19.62% # attempts to use FU when none available (Count)
system.cpu.statFuBusy::SimdShift                   24      0.01%     19.63% # attempts to use FU when none available (Count)
system.cpu.statFuBusy::SimdShiftAcc                 0      0.00%     19.63% # attempts to use FU when none available (Count)
system.cpu.statFuBusy::SimdDiv                      0      0.00%     19.63% # attempts to use FU when none available (Count)
system.cpu.statFuBusy::SimdSqrt                     0      0.00%     19.63% # attempts to use FU when none available (Count)
system.cpu.statFuBusy::SimdFloatAdd                 0      0.00%     19.63% # attempts to use FU when none available (Count)
system.cpu.statFuBusy::SimdFloatAlu                 0      0.00%     19.63% # attempts to use FU when none available (Count)
system.cpu.statFuBusy::SimdFloatCmp                 0      0.00%     19.63% # attempts to use FU when none available (Count)
system.cpu.statFuBusy::SimdFloatCvt                 0      0.00%     19.63% # attempts to use FU when none available (Count)
system.cpu.statFuBusy::SimdFloatDiv                 0      0.00%     19.63% # attempts to use FU when none available (Count)
system.cpu.statFuBusy::SimdFloatMisc                0      0.00%     19.63% # attempts to use FU when none available (Count)
system.cpu.statFuBusy::SimdFloatMult                0      0.00%     19.63% # attempts to use FU when none available (Count)
system.cpu.statFuBusy::SimdFloatMultAcc             0      0.00%     19.63% # attempts to use FU when none available (Count)
system.cpu.statFuBusy::SimdFloatSqrt                0      0.00%     19.63% # attempts to use FU when none available (Count)
system.cpu.statFuBusy::SimdReduceAdd                0      0.00%     19.63% # attempts to use FU when none available (Count)
system.cpu.statFuBusy::SimdReduceAlu                0      0.00%     19.63% # attempts to use FU when none available (Count)
system.cpu.statFuBusy::SimdReduceCmp                0      0.00%     19.63% # attempts to use FU when none available (Count)
system.cpu.statFuBusy::SimdFloatReduceAdd            0      0.00%     19.63% # attempts to use FU when none available (Count)
system.cpu.statFuBusy::SimdFloatReduceCmp            0      0.00%     19.63% # attempts to use FU when none available (Count)
system.cpu.statFuBusy::SimdAes                      0      0.00%     19.63% # attempts to use FU when none available (Count)
system.cpu.statFuBusy::SimdAesMix                   0      0.00%     19.63% # attempts to use FU when none available (Count)
system.cpu.statFuBusy::SimdSha1Hash                 0      0.00%     19.63% # attempts to use FU when none available (Count)
system.cpu.statFuBusy::SimdSha1Hash2                0      0.00%     19.63% # attempts to use FU when none available (Count)
system.cpu.statFuBusy::SimdSha256Hash               0      0.00%     19.63% # attempts to use FU when none available (Count)
system.cpu.statFuBusy::SimdSha256Hash2              0      0.00%     19.63% # attempts to use FU when none available (Count)
system.cpu.statFuBusy::SimdShaSigma2                0      0.00%     19.63% # attempts to use FU when none available (Count)
system.cpu.statFuBusy::SimdShaSigma3                0      0.00%     19.63% # attempts to use FU when none available (Count)
system.cpu.statFuBusy::SimdPredAlu                  0      0.00%     19.63% # attempts to use FU when none available (Count)
system.cpu.statFuBusy::MemRead                 174765     78.31%     97.94% # attempts to use FU when none available (Count)
system.cpu.statFuBusy::MemWrite                  4253      1.91%     99.84% # attempts to use FU when none available (Count)
system.cpu.statFuBusy::FloatMemRead               227      0.10%     99.95% # attempts to use FU when none available (Count)
system.cpu.statFuBusy::FloatMemWrite              119      0.05%    100.00% # attempts to use FU when none available (Count)
system.cpu.statFuBusy::IprAccess                    0      0.00%    100.00% # attempts to use FU when none available (Count)
system.cpu.statFuBusy::InstPrefetch                 0      0.00%    100.00% # attempts to use FU when none available (Count)
system.cpu.statIssuedInstType_0::No_OpClass      1593900      1.72%      1.72% # Number of instructions issued per FU type, per thread (Count)
system.cpu.statIssuedInstType_0::IntAlu      53871881     58.25%     59.97% # Number of instructions issued per FU type, per thread (Count)
system.cpu.statIssuedInstType_0::IntMult         1916      0.00%     59.97% # Number of instructions issued per FU type, per thread (Count)
system.cpu.statIssuedInstType_0::IntDiv         42093      0.05%     60.02% # Number of instructions issued per FU type, per thread (Count)
system.cpu.statIssuedInstType_0::FloatAdd      1841656      1.99%     62.01% # Number of instructions issued per FU type, per thread (Count)
system.cpu.statIssuedInstType_0::FloatCmp            0      0.00%     62.01% # Number of instructions issued per FU type, per thread (Count)
system.cpu.statIssuedInstType_0::FloatCvt       262384      0.28%     62.29% # Number of instructions issued per FU type, per thread (Count)
system.cpu.statIssuedInstType_0::FloatMult       262144      0.28%     62.58% # Number of instructions issued per FU type, per thread (Count)
system.cpu.statIssuedInstType_0::FloatMultAcc            0      0.00%     62.58% # Number of instructions issued per FU type, per thread (Count)
system.cpu.statIssuedInstType_0::FloatDiv            0      0.00%     62.58% # Number of instructions issued per FU type, per thread (Count)
system.cpu.statIssuedInstType_0::FloatMisc            0      0.00%     62.58% # Number of instructions issued per FU type, per thread (Count)
system.cpu.statIssuedInstType_0::FloatSqrt            0      0.00%     62.58% # Number of instructions issued per FU type, per thread (Count)
system.cpu.statIssuedInstType_0::SimdAdd         6714      0.01%     62.58% # Number of instructions issued per FU type, per thread (Count)
system.cpu.statIssuedInstType_0::SimdAddAcc            0      0.00%     62.58% # Number of instructions issued per FU type, per thread (Count)
system.cpu.statIssuedInstType_0::SimdAlu       274282      0.30%     62.88% # Number of instructions issued per FU type, per thread (Count)
system.cpu.statIssuedInstType_0::SimdCmp            8      0.00%     62.88% # Number of instructions issued per FU type, per thread (Count)
system.cpu.statIssuedInstType_0::SimdCvt        13921      0.02%     62.90% # Number of instructions issued per FU type, per thread (Count)
system.cpu.statIssuedInstType_0::SimdMisc       405662      0.44%     63.33% # Number of instructions issued per FU type, per thread (Count)
system.cpu.statIssuedInstType_0::SimdMult            0      0.00%     63.33% # Number of instructions issued per FU type, per thread (Count)
system.cpu.statIssuedInstType_0::SimdMultAcc            0      0.00%     63.33% # Number of instructions issued per FU type, per thread (Count)
system.cpu.statIssuedInstType_0::SimdShift         1030      0.00%     63.33% # Number of instructions issued per FU type, per thread (Count)
system.cpu.statIssuedInstType_0::SimdShiftAcc            0      0.00%     63.33% # Number of instructions issued per FU type, per thread (Count)
system.cpu.statIssuedInstType_0::SimdDiv            0      0.00%     63.33% # Number of instructions issued per FU type, per thread (Count)
system.cpu.statIssuedInstType_0::SimdSqrt            0      0.00%     63.33% # Number of instructions issued per FU type, per thread (Count)
system.cpu.statIssuedInstType_0::SimdFloatAdd       524329      0.57%     63.90% # Number of instructions issued per FU type, per thread (Count)
system.cpu.statIssuedInstType_0::SimdFloatAlu            0      0.00%     63.90% # Number of instructions issued per FU type, per thread (Count)
system.cpu.statIssuedInstType_0::SimdFloatCmp            0      0.00%     63.90% # Number of instructions issued per FU type, per thread (Count)
system.cpu.statIssuedInstType_0::SimdFloatCvt       393257      0.43%     64.33% # Number of instructions issued per FU type, per thread (Count)
system.cpu.statIssuedInstType_0::SimdFloatDiv       131079      0.14%     64.47% # Number of instructions issued per FU type, per thread (Count)
system.cpu.statIssuedInstType_0::SimdFloatMisc            0      0.00%     64.47% # Number of instructions issued per FU type, per thread (Count)
system.cpu.statIssuedInstType_0::SimdFloatMult       393232      0.43%     64.89% # Number of instructions issued per FU type, per thread (Count)
system.cpu.statIssuedInstType_0::SimdFloatMultAcc            0      0.00%     64.89% # Number of instructions issued per FU type, per thread (Count)
system.cpu.statIssuedInstType_0::SimdFloatSqrt            0      0.00%     64.89% # Number of instructions issued per FU type, per thread (Count)
system.cpu.statIssuedInstType_0::SimdReduceAdd            0      0.00%     64.89% # Number of instructions issued per FU type, per thread (Count)
system.cpu.statIssuedInstType_0::SimdReduceAlu            0      0.00%     64.89% # Number of instructions issued per FU type, per thread (Count)
system.cpu.statIssuedInstType_0::SimdReduceCmp            0      0.00%     64.89% # Number of instructions issued per FU type, per thread (Count)
system.cpu.statIssuedInstType_0::SimdFloatReduceAdd            0      0.00%     64.89% # Number of instructions issued per FU type, per thread (Count)
system.cpu.statIssuedInstType_0::SimdFloatReduceCmp            0      0.00%     64.89% # Number of instructions issued per FU type, per thread (Count)
system.cpu.statIssuedInstType_0::SimdAes            0      0.00%     64.89% # Number of instructions issued per FU type, per thread (Count)
system.cpu.statIssuedInstType_0::SimdAesMix            0      0.00%     64.89% # Number of instructions issued per FU type, per thread (Count)
system.cpu.statIssuedInstType_0::SimdSha1Hash            0      0.00%     64.89% # Number of instructions issued per FU type, per thread (Count)
system.cpu.statIssuedInstType_0::SimdSha1Hash2            0      0.00%     64.89% # Number of instructions issued per FU type, per thread (Count)
system.cpu.statIssuedInstType_0::SimdSha256Hash            0      0.00%     64.89% # Number of instructions issued per FU type, per thread (Count)
system.cpu.statIssuedInstType_0::SimdSha256Hash2            0      0.00%     64.89% # Number of instructions issued per FU type, per thread (Count)
system.cpu.statIssuedInstType_0::SimdShaSigma2            0      0.00%     64.89% # Number of instructions issued per FU type, per thread (Count)
system.cpu.statIssuedInstType_0::SimdShaSigma3            0      0.00%     64.89% # Number of instructions issued per FU type, per thread (Count)
system.cpu.statIssuedInstType_0::SimdPredAlu            0      0.00%     64.89% # Number of instructions issued per FU type, per thread (Count)
system.cpu.statIssuedInstType_0::MemRead     19159582     20.72%     85.61% # Number of instructions issued per FU type, per thread (Count)
system.cpu.statIssuedInstType_0::MemWrite      9609864     10.39%     96.00% # Number of instructions issued per FU type, per thread (Count)
system.cpu.statIssuedInstType_0::FloatMemRead      2377250      2.57%     98.57% # Number of instructions issued per FU type, per thread (Count)
system.cpu.statIssuedInstType_0::FloatMemWrite      1322399      1.43%    100.00% # Number of instructions issued per FU type, per thread (Count)
system.cpu.statIssuedInstType_0::IprAccess            0      0.00%    100.00% # Number of instructions issued per FU type, per thread (Count)
system.cpu.statIssuedInstType_0::InstPrefetch            0      0.00%    100.00% # Number of instructions issued per FU type, per thread (Count)
system.cpu.statIssuedInstType_0::total       92488583                       # Number of instructions issued per FU type, per thread (Count)
system.cpu.issueRate                         1.222425                       # Inst issue rate ((Count/Cycle))
system.cpu.fuBusy                              223181                       # FU busy when requested (Count)
system.cpu.fuBusyRate                        0.002413                       # FU busy rate (busy events/executed inst) ((Count/Count))
system.cpu.intInstQueueReads                238244847                       # Number of integer instruction queue reads (Count)
system.cpu.intInstQueueWrites               100684823                       # Number of integer instruction queue writes (Count)
system.cpu.intInstQueueWakeupAccesses        82597185                       # Number of integer instruction queue wakeup accesses (Count)
system.cpu.fpInstQueueReads                  18522652                       # Number of floating instruction queue reads (Count)
system.cpu.fpInstQueueWrites                  9286744                       # Number of floating instruction queue writes (Count)
system.cpu.fpInstQueueWakeupAccesses          9258274                       # Number of floating instruction queue wakeup accesses (Count)
system.cpu.vecInstQueueReads                        0                       # Number of vector instruction queue reads (Count)
system.cpu.vecInstQueueWrites                       0                       # Number of vector instruction queue writes (Count)
system.cpu.vecInstQueueWakeupAccesses               0                       # Number of vector instruction queue wakeup accesses (Count)
system.cpu.intAluAccesses                    81856297                       # Number of integer alu accesses (Count)
system.cpu.fpAluAccesses                      9261567                       # Number of floating point alu accesses (Count)
system.cpu.vecAluAccesses                           0                       # Number of vector alu accesses (Count)
system.cpu.idleCycles                               0                       # Number of cycles IEW is idle (Cycle)
system.cpu.squashCycles                        153736                       # Number of cycles IEW is squashing (Cycle)
system.cpu.blockCycles                        1987677                       # Number of cycles IEW is blocking (Cycle)
system.cpu.unblockCycles                       579141                       # Number of cycles IEW is unblocking (Cycle)
system.cpu.dispatchedInsts                   96585228                       # Number of instructions dispatched to IQ (Count)
system.cpu.dispSquashedInsts                     1159                       # Number of squashed instructions skipped by dispatch (Count)
system.cpu.dispLoadInsts                     22348777                       # Number of dispatched load instructions (Count)
system.cpu.dispStoreInsts                    11340073                       # Number of dispatched store instructions (Count)
system.cpu.dispNonSpecInsts                    918660                       # Number of dispatched non-speculative instructions (Count)
system.cpu.iqFullEvents                         21562                       # Number of times the IQ has become full, causing a stall (Count)
system.cpu.lsqFullEvents                       539694                       # Number of times the LSQ has become full, causing a stall (Count)
system.cpu.memOrderViolationEvents               3305                       # Number of memory order violations (Count)
system.cpu.predictedTakenIncorrect              72649                       # Number of branches that were predicted taken incorrectly (Count)
system.cpu.predictedNotTakenIncorrect           75443                       # Number of branches that were predicted not taken incorrectly (Count)
system.cpu.branchMispredicts                   148092                       # Number of branch mispredicts detected at execute (Count)
system.cpu.numInsts                          92069339                       # Number of executed instructions (Count)
system.cpu.numLoadInsts                      21433809                       # Number of load instructions executed (Count)
system.cpu.numSquashedInsts                    419239                       # Number of squashed instructions skipped in execute (Count)
system.cpu.numSwp                                   0                       # Number of swp insts executed (Count)
system.cpu.numNop                                   0                       # Number of nop insts executed (Count)
system.cpu.numRefs                           32228514                       # Number of memory reference insts executed (Count)
system.cpu.numBranches                        6919881                       # Number of branches executed (Count)
system.cpu.numStoreInsts                     10794705                       # Number of stores executed (Count)
system.cpu.numRate                           1.216884                       # Inst execution rate ((Count/Cycle))
system.cpu.instsToCommit                     91925101                       # Cumulative count of insts sent to commit (Count)
system.cpu.writebackCount                    91855459                       # Cumulative count of insts written-back (Count)
system.cpu.producerInst                      64785454                       # Number of instructions producing a value (Count)
system.cpu.consumerInst                     102671115                       # Number of instructions consuming a value (Count)
system.cpu.wbRate                            1.214057                       # Insts written-back per cycle ((Count/Cycle))
system.cpu.wbFanout                          0.631000                       # Average fanout of values written-back ((Count/Count))
system.cpu.timesIdled                          220248                       # Number of times that the entire CPU went into an idle state and unscheduled itself (Count)
system.cpu.idleCycles                         4094210                       # Total number of cycles that the CPU has spent unscheduled due to idling (Cycle)
system.cpu.committedInsts                    46698355                       # Number of Instructions Simulated (Count)
system.cpu.committedOps                      83201955                       # Number of Ops (including micro ops) Simulated (Count)
system.cpu.cpi                               1.620184                       # CPI: Cycles Per Instruction ((Cycle/Count))
system.cpu.totalCpi                          1.620184                       # CPI: Total CPI of All Threads ((Cycle/Count))
system.cpu.ipc                               0.617214                       # IPC: Instructions Per Cycle ((Count/Cycle))
system.cpu.totalIpc                          0.617214                       # IPC: Total IPC of All Threads ((Count/Cycle))
system.cpu.intRegfileReads                  145174984                       # Number of integer regfile reads (Count)
system.cpu.intRegfileWrites                  64623954                       # Number of integer regfile writes (Count)
system.cpu.fpRegfileReads                     9162687                       # Number of floating regfile reads (Count)
system.cpu.fpRegfileWrites                    7404693                       # Number of floating regfile writes (Count)
system.cpu.ccRegfileReads                    19422908                       # number of cc regfile reads (Count)
system.cpu.ccRegfileWrites                   19727059                       # number of cc regfile writes (Count)
system.cpu.miscRegfileReads                  47245355                       # number of misc regfile reads (Count)
system.cpu.miscRegfileWrites                  1835143                       # number of misc regfile writes (Count)
system.cpu.MemDepUnit__0.insertedLoads       22348777                       # Number of loads inserted to the mem dependence unit. (Count)
system.cpu.MemDepUnit__0.insertedStores      11340073                       # Number of stores inserted to the mem dependence unit. (Count)
system.cpu.MemDepUnit__0.conflictingLoads      8510601                       # Number of conflicting loads. (Count)
system.cpu.MemDepUnit__0.conflictingStores      2147525                       # Number of conflicting stores. (Count)
system.cpu.MemDepUnit__1.insertedLoads              0                       # Number of loads inserted to the mem dependence unit. (Count)
system.cpu.MemDepUnit__1.insertedStores             0                       # Number of stores inserted to the mem dependence unit. (Count)
system.cpu.MemDepUnit__1.conflictingLoads            0                       # Number of conflicting loads. (Count)
system.cpu.MemDepUnit__1.conflictingStores            0                       # Number of conflicting stores. (Count)
system.cpu.MemDepUnit__2.insertedLoads              0                       # Number of loads inserted to the mem dependence unit. (Count)
system.cpu.MemDepUnit__2.insertedStores             0                       # Number of stores inserted to the mem dependence unit. (Count)
system.cpu.MemDepUnit__2.conflictingLoads            0                       # Number of conflicting loads. (Count)
system.cpu.MemDepUnit__2.conflictingStores            0                       # Number of conflicting stores. (Count)
system.cpu.MemDepUnit__3.insertedLoads              0                       # Number of loads inserted to the mem dependence unit. (Count)
system.cpu.MemDepUnit__3.insertedStores             0                       # Number of stores inserted to the mem dependence unit. (Count)
system.cpu.MemDepUnit__3.conflictingLoads            0                       # Number of conflicting loads. (Count)
system.cpu.MemDepUnit__3.conflictingStores            0                       # Number of conflicting stores. (Count)
system.cpu.branchPred.lookups                 7562651                       # Number of BP lookups (Count)
system.cpu.branchPred.condPredicted           2817629                       # Number of conditional branches predicted (Count)
system.cpu.branchPred.condIncorrect            146404                       # Number of conditional branches incorrect (Count)
system.cpu.branchPred.BTBLookups              4298575                       # Number of BTB lookups (Count)
system.cpu.branchPred.BTBHits                 4296548                       # Number of BTB hits (Count)
[...]
system.mem_ctrl.rdPerTurnAround::12                 6      0.99%      2.98% # Reads before turning the bus around for writes (Count)
system.mem_ctrl.rdPerTurnAround::13                 8      1.32%      4.30% # Reads before turning the bus around for writes (Count)
system.mem_ctrl.rdPerTurnAround::14                13      2.15%      6.46% # Reads before turning the bus around for writes (Count)
system.mem_ctrl.rdPerTurnAround::15                20      3.31%      9.77% # Reads before turning the bus around for writes (Count)
system.mem_ctrl.rdPerTurnAround::16               525     86.92%     96.69% # Reads before turning the bus around for writes (Count)
system.mem_ctrl.rdPerTurnAround::17                14      2.32%     99.01% # Reads before turning the bus around for writes (Count)
system.mem_ctrl.rdPerTurnAround::18                 4      0.66%     99.67% # Reads before turning the bus around for writes (Count)
system.mem_ctrl.rdPerTurnAround::19                 2      0.33%    100.00% # Reads before turning the bus around for writes (Count)
system.mem_ctrl.rdPerTurnAround::total            604                       # Reads before turning the bus around for writes (Count)
system.mem_ctrl.wrPerTurnAround::samples          604                       # Writes before turning the bus around for reads (Count)
system.mem_ctrl.wrPerTurnAround::mean       16.036424                       # Writes before turning the bus around for reads (Count)
system.mem_ctrl.wrPerTurnAround::gmean      16.034286                       # Writes before turning the bus around for reads (Count)
system.mem_ctrl.wrPerTurnAround::stdev       0.273782                       # Writes before turning the bus around for reads (Count)
system.mem_ctrl.wrPerTurnAround::16               592     98.01%     98.01% # Writes before turning the bus around for reads (Count)
system.mem_ctrl.wrPerTurnAround::17                 4      0.66%     98.68% # Writes before turning the bus around for reads (Count)
system.mem_ctrl.wrPerTurnAround::18                 6      0.99%     99.67% # Writes before turning the bus around for reads (Count)
system.mem_ctrl.wrPerTurnAround::19                 2      0.33%    100.00% # Writes before turning the bus around for reads (Count)
system.mem_ctrl.wrPerTurnAround::total            604                       # Writes before turning the bus around for reads (Count)
system.mem_ctrl.bytesReadWrQ                    17088                       # Total number of bytes read from write queue (Byte)
system.mem_ctrl.bytesReadSys                   626880                       # Total read bytes from the system interface side (Byte)
system.mem_ctrl.bytesWrittenSys                626944                       # Total written bytes from the system interface side (Byte)
system.mem_ctrl.avgRdBWSys               795929949.83538747                       # Average system read bandwidth in Byte/s ((Byte/Second))
system.mem_ctrl.avgWrBWSys               796011208.63577902                       # Average system write bandwidth in Byte/s ((Byte/Second))
system.mem_ctrl.totGap                      787654000                       # Total gap between requests (Tick)
system.mem_ctrl.avgGap                       40204.89                       # Average gap between requests ((Tick/Count))
system.mem_ctrl.requestorReadBytes::caches.controllers1       609792                       # Per-requestor bytes read from memory (Byte)
system.mem_ctrl.requestorWriteBytes::caches.controllers1       619904                       # Per-requestor bytes write to memory (Byte)
system.mem_ctrl.requestorReadRate::caches.controllers1 774233850.130839467049                       # Per-requestor bytes read from memory rate ((Byte/Second))
system.mem_ctrl.requestorWriteRate::caches.controllers1 787072740.592706799507                       # Per-requestor bytes write to memory rate ((Byte/Second))
system.mem_ctrl.requestorReadAccesses::caches.controllers1         9795                       # Per-requestor read serviced memory accesses (Count)
system.mem_ctrl.requestorWriteAccesses::caches.controllers1         9796                       # Per-requestor write serviced memory accesses (Count)
system.mem_ctrl.requestorReadTotalLat::caches.controllers1    309321500                       # Per-requestor read total memory access latency (Tick)
system.mem_ctrl.requestorWriteTotalLat::caches.controllers1  19428931250                       # Per-requestor write total memory access latency (Tick)
system.mem_ctrl.requestorReadAvgLat::caches.controllers1     31579.53                       # Per-requestor read average memory access latency ((Tick/Count))
system.mem_ctrl.requestorWriteAvgLat::caches.controllers1   1983353.54                       # Per-requestor write average memory access latency ((Tick/Count))
system.mem_ctrl.dram.bytesRead::caches.controllers1       626880                       # Number of bytes read from this memory (Byte)
system.mem_ctrl.dram.bytesRead::total          626880                       # Number of bytes read from this memory (Byte)
system.mem_ctrl.dram.bytesWritten::caches.controllers1       626944                       # Number of bytes written to this memory (Byte)
system.mem_ctrl.dram.bytesWritten::total       626944                       # Number of bytes written to this memory (Byte)
system.mem_ctrl.dram.numReads::caches.controllers1         9795                       # Number of read requests responded to by this memory (Count)
system.mem_ctrl.dram.numReads::total             9795                       # Number of read requests responded to by this memory (Count)
system.mem_ctrl.dram.numWrites::caches.controllers1         9796                       # Number of write requests responded to by this memory (Count)
system.mem_ctrl.dram.numWrites::total            9796                       # Number of write requests responded to by this memory (Count)
system.mem_ctrl.dram.bwRead::caches.controllers1    795929950                       # Total read bandwidth from this memory ((Byte/Second))
system.mem_ctrl.dram.bwRead::total          795929950                       # Total read bandwidth from this memory ((Byte/Second))
system.mem_ctrl.dram.bwWrite::caches.controllers1    796011209                       # Write bandwidth from this memory ((Byte/Second))
system.mem_ctrl.dram.bwWrite::total         796011209                       # Write bandwidth from this memory ((Byte/Second))
system.mem_ctrl.dram.bwTotal::caches.controllers1   1591941158                       # Total bandwidth to/from this memory ((Byte/Second))
system.mem_ctrl.dram.bwTotal::total        1591941158                       # Total bandwidth to/from this memory ((Byte/Second))
system.mem_ctrl.dram.readBursts                  9528                       # Number of DRAM read bursts (Count)
system.mem_ctrl.dram.writeBursts                 9686                       # Number of DRAM write bursts (Count)
system.mem_ctrl.dram.perBankRdBursts::0           519                       # Per bank write bursts (Count)
system.mem_ctrl.dram.perBankRdBursts::1           563                       # Per bank write bursts (Count)
system.mem_ctrl.dram.perBankRdBursts::2           652                       # Per bank write bursts (Count)
system.mem_ctrl.dram.perBankRdBursts::3           634                       # Per bank write bursts (Count)
system.mem_ctrl.dram.perBankRdBursts::4           599                       # Per bank write bursts (Count)
system.mem_ctrl.dram.perBankRdBursts::5           564                       # Per bank write bursts (Count)
system.mem_ctrl.dram.perBankRdBursts::6           555                       # Per bank write bursts (Count)
system.mem_ctrl.dram.perBankRdBursts::7           631                       # Per bank write bursts (Count)
system.mem_ctrl.dram.perBankRdBursts::8           519                       # Per bank write bursts (Count)
system.mem_ctrl.dram.perBankRdBursts::9           588                       # Per bank write bursts (Count)
system.mem_ctrl.dram.perBankRdBursts::10          592                       # Per bank write bursts (Count)
system.mem_ctrl.dram.perBankRdBursts::11          530                       # Per bank write bursts (Count)
system.mem_ctrl.dram.perBankRdBursts::12          637                       # Per bank write bursts (Count)
system.mem_ctrl.dram.perBankRdBursts::13          722                       # Per bank write bursts (Count)
system.mem_ctrl.dram.perBankRdBursts::14          675                       # Per bank write bursts (Count)
system.mem_ctrl.dram.perBankRdBursts::15          548                       # Per bank write bursts (Count)
system.mem_ctrl.dram.perBankWrBursts::0           519                       # Per bank write bursts (Count)
system.mem_ctrl.dram.perBankWrBursts::1           561                       # Per bank write bursts (Count)
system.mem_ctrl.dram.perBankWrBursts::2           659                       # Per bank write bursts (Count)
system.mem_ctrl.dram.perBankWrBursts::3           651                       # Per bank write bursts (Count)
system.mem_ctrl.dram.perBankWrBursts::4           617                       # Per bank write bursts (Count)
system.mem_ctrl.dram.perBankWrBursts::5           567                       # Per bank write bursts (Count)
system.mem_ctrl.dram.perBankWrBursts::6           555                       # Per bank write bursts (Count)
system.mem_ctrl.dram.perBankWrBursts::7           641                       # Per bank write bursts (Count)
system.mem_ctrl.dram.perBankWrBursts::8           519                       # Per bank write bursts (Count)
system.mem_ctrl.dram.perBankWrBursts::9           597                       # Per bank write bursts (Count)
system.mem_ctrl.dram.perBankWrBursts::10          595                       # Per bank write bursts (Count)
system.mem_ctrl.dram.perBankWrBursts::11          566                       # Per bank write bursts (Count)
system.mem_ctrl.dram.perBankWrBursts::12          655                       # Per bank write bursts (Count)
system.mem_ctrl.dram.perBankWrBursts::13          739                       # Per bank write bursts (Count)
system.mem_ctrl.dram.perBankWrBursts::14          689                       # Per bank write bursts (Count)
system.mem_ctrl.dram.perBankWrBursts::15          556                       # Per bank write bursts (Count)
system.mem_ctrl.dram.totQLat                130671500                       # Total ticks spent queuing (Tick)
system.mem_ctrl.dram.totBusLat               47640000                       # Total ticks spent in databus transfers (Tick)
system.mem_ctrl.dram.totMemAccLat           309321500                       # Total ticks spent from burst creation until serviced by the DRAM (Tick)
system.mem_ctrl.dram.avgQLat                 13714.47                       # Average queueing delay per DRAM burst ((Tick/Count))
system.mem_ctrl.dram.avgBusLat                5000.00                       # Average bus latency per DRAM burst ((Tick/Count))
system.mem_ctrl.dram.avgMemAccLat            32464.47                       # Average memory access latency per DRAM burst ((Tick/Count))
system.mem_ctrl.dram.readRowHits                 8527                       # Number of row buffer hits during reads (Count)
system.mem_ctrl.dram.writeRowHits                8938                       # Number of row buffer hits during writes (Count)
system.mem_ctrl.dram.readRowHitRate             89.49                       # Row buffer hit rate for reads (Ratio)
system.mem_ctrl.dram.writeRowHitRate            92.28                       # Row buffer hit rate for writes (Ratio)
system.mem_ctrl.dram.bytesPerActivate::samples         1743                       # Bytes accessed per row activation (Byte)
system.mem_ctrl.dram.bytesPerActivate::mean   703.816408                       # Bytes accessed per row activation (Byte)
system.mem_ctrl.dram.bytesPerActivate::gmean   503.958975                       # Bytes accessed per row activation (Byte)
system.mem_ctrl.dram.bytesPerActivate::stdev   397.180561                       # Bytes accessed per row activation (Byte)
system.mem_ctrl.dram.bytesPerActivate::0-127          191     10.96%     10.96% # Bytes accessed per row activation (Byte)
system.mem_ctrl.dram.bytesPerActivate::128-255          241     13.83%     24.78% # Bytes accessed per row activation (Byte)
system.mem_ctrl.dram.bytesPerActivate::256-383           76      4.36%     29.15% # Bytes accessed per row activation (Byte)
system.mem_ctrl.dram.bytesPerActivate::384-511           86      4.93%     34.08% # Bytes accessed per row activation (Byte)
system.mem_ctrl.dram.bytesPerActivate::512-639           60      3.44%     37.52% # Bytes accessed per row activation (Byte)
system.mem_ctrl.dram.bytesPerActivate::640-767           47      2.70%     40.22% # Bytes accessed per row activation (Byte)
system.mem_ctrl.dram.bytesPerActivate::768-895           33      1.89%     42.11% # Bytes accessed per row activation (Byte)
system.mem_ctrl.dram.bytesPerActivate::896-1023           46      2.64%     44.75% # Bytes accessed per row activation (Byte)
system.mem_ctrl.dram.bytesPerActivate::1024-1151          963     55.25%    100.00% # Bytes accessed per row activation (Byte)
system.mem_ctrl.dram.bytesPerActivate::total         1743                       # Bytes accessed per row activation (Byte)
system.mem_ctrl.dram.bytesRead                 609792                       # Total number of bytes read from DRAM (Byte)
system.mem_ctrl.dram.bytesWritten              619904                       # Total number of bytes written to DRAM (Byte)
system.mem_ctrl.dram.avgRdBW               774.233850                       # Average DRAM read bandwidth in MiBytes/s ((Byte/Second))
system.mem_ctrl.dram.avgWrBW               787.072741                       # Average DRAM write bandwidth in MiBytes/s ((Byte/Second))
system.mem_ctrl.dram.peakBW                  12800.00                       # Theoretical peak bandwidth in MiByte/s ((Byte/Second))
system.mem_ctrl.dram.busUtil                    12.20                       # Data bus utilization in percentage (Ratio)
system.mem_ctrl.dram.busUtilRead                 6.05                       # Data bus utilization in percentage for reads (Ratio)
system.mem_ctrl.dram.busUtilWrite                6.15                       # Data bus utilization in percentage for writes (Ratio)
system.mem_ctrl.dram.pageHitRate                90.90                       # Row buffer hit rate, read and write combined (Ratio)
system.mem_ctrl.dram.power_state.pwrStateResidencyTicks::UNDEFINED    787607000                       # Cumulative time (in ticks) in various power states (Tick)
system.mem_ctrl.dram.rank0.actEnergy          6233220                       # Energy for activate commands per rank (pJ) (Joule)
system.mem_ctrl.dram.rank0.preEnergy          3297855                       # Energy for precharge commands per rank (pJ) (Joule)
system.mem_ctrl.dram.rank0.readEnergy        33679380                       # Energy for read commands per rank (pJ) (Joule)
system.mem_ctrl.dram.rank0.writeEnergy       24899400                       # Energy for write commands per rank (pJ) (Joule)
system.mem_ctrl.dram.rank0.refreshEnergy 62078640.000000                       # Energy for refresh commands per rank (pJ) (Joule)
system.mem_ctrl.dram.rank0.actBackEnergy    209598120                       # Energy for active background per rank (pJ) (Joule)
system.mem_ctrl.dram.rank0.preBackEnergy    125937120                       # Energy for precharge background per rank (pJ) (Joule)
system.mem_ctrl.dram.rank0.actPowerDownEnergy            0                       # Energy for active power-down per rank (pJ) (Joule)
system.mem_ctrl.dram.rank0.prePowerDownEnergy            0                       # Energy for precharge power-down per rank (pJ) (Joule)
system.mem_ctrl.dram.rank0.selfRefreshEnergy            0                       # Energy for self refresh per rank (pJ) (Joule)
system.mem_ctrl.dram.rank0.totalEnergy      465723735                       # Total energy per rank (pJ) (Joule)
system.mem_ctrl.dram.rank0.averagePower    591.314875                       # Core power per rank (mW) (Watt)
system.mem_ctrl.dram.rank0.totalIdleTime            0                       # Total Idle time Per DRAM Rank (Tick)
system.mem_ctrl.dram.rank0.pwrStateTime::IDLE    323326000                       # Time in different power states (Tick)
system.mem_ctrl.dram.rank0.pwrStateTime::REF     26260000                       # Time in different power states (Tick)
system.mem_ctrl.dram.rank0.pwrStateTime::SREF            0                       # Time in different power states (Tick)
system.mem_ctrl.dram.rank0.pwrStateTime::PRE_PDN            0                       # Time in different power states (Tick)
system.mem_ctrl.dram.rank0.pwrStateTime::ACT    438021000                       # Time in different power states (Tick)
system.mem_ctrl.dram.rank0.pwrStateTime::ACT_PDN            0                       # Time in different power states (Tick)
system.mem_ctrl.dram.rank1.actEnergy          6254640                       # Energy for activate commands per rank (pJ) (Joule)
system.mem_ctrl.dram.rank1.preEnergy          3316830                       # Energy for precharge commands per rank (pJ) (Joule)
system.mem_ctrl.dram.rank1.readEnergy        34350540                       # Energy for read commands per rank (pJ) (Joule)
system.mem_ctrl.dram.rank1.writeEnergy       25661520                       # Energy for write commands per rank (pJ) (Joule)
system.mem_ctrl.dram.rank1.refreshEnergy 62078640.000000                       # Energy for refresh commands per rank (pJ) (Joule)
system.mem_ctrl.dram.rank1.actBackEnergy    206392440                       # Energy for active background per rank (pJ) (Joule)
system.mem_ctrl.dram.rank1.preBackEnergy    128636640                       # Energy for precharge background per rank (pJ) (Joule)
system.mem_ctrl.dram.rank1.actPowerDownEnergy            0                       # Energy for active power-down per rank (pJ) (Joule)
system.mem_ctrl.dram.rank1.prePowerDownEnergy            0                       # Energy for precharge power-down per rank (pJ) (Joule)
system.mem_ctrl.dram.rank1.selfRefreshEnergy            0                       # Energy for self refresh per rank (pJ) (Joule)
system.mem_ctrl.dram.rank1.totalEnergy      466691250                       # Total energy per rank (pJ) (Joule)
system.mem_ctrl.dram.rank1.averagePower    592.543299                       # Core power per rank (mW) (Watt)
system.mem_ctrl.dram.rank1.totalIdleTime            0                       # Total Idle time Per DRAM Rank (Tick)
system.mem_ctrl.dram.rank1.pwrStateTime::IDLE    330368500                       # Time in different power states (Tick)
system.mem_ctrl.dram.rank1.pwrStateTime::REF     26260000                       # Time in different power states (Tick)
system.mem_ctrl.dram.rank1.pwrStateTime::SREF            0                       # Time in different power states (Tick)
system.mem_ctrl.dram.rank1.pwrStateTime::PRE_PDN            0                       # Time in different power states (Tick)
system.mem_ctrl.dram.rank1.pwrStateTime::ACT    430978500                       # Time in different power states (Tick)
system.mem_ctrl.dram.rank1.pwrStateTime::ACT_PDN            0                       # Time in different power states (Tick)
system.mem_ctrl.power_state.pwrStateResidencyTicks::UNDEFINED    787607000                       # Cumulative time (in ticks) in various power states (Tick)
system.workload.inst.arm                            0                       # number of arm instructions executed (Count)
system.workload.inst.quiesce                        0                       # number of quiesce instructions executed (Count)

---------- End Simulation Statistics   ----------
