
---------- Begin Simulation Statistics ----------
simSeconds                                   0.051196                       # Number of seconds simulated (Second)
simTicks                                  51196023000                       # Number of ticks simulated (Tick)
finalTick                                 51196023000                       # Number of ticks from beginning of simulation (restored from checkpoints and never reset) (Tick)
simFreq                                  1000000000000                       # The number of ticks per simulated second ((Tick/Second))
hostSeconds                                    176.81                       # Real time elapsed on the host (Second)
hostTickRate                                289556700                       # The number of ticks simulated per host second (ticks/s) ((Tick/Second))
hostMemory                                    9639680                       # Number of bytes of host memory used (Byte)
simInsts                                     46698355                       # Number of instructions simulated (Count)
simOps                                       83201955                       # Number of ops (including micro ops) simulated (Count)
hostInstRate                                   264118                       # Simulator instruction rate (inst/s) ((Count/Second))
hostOpRate                                     470577                       # Simulator op (including micro ops) rate (op/s) ((Count/Second))
system.caches.delayHistogram::bucket_size            2                       # delay histogram for all message (Unspecified)
system.caches.delayHistogram::max_bucket           19                       # delay histogram for all message (Unspecified)
system.caches.delayHistogram::samples           70628                       # delay histogram for all message (Unspecified)
system.caches.delayHistogram::mean           0.028742                       # delay histogram for all message (Unspecified)
system.caches.delayHistogram::stdev          0.412226                       # delay histogram for all message (Unspecified)
system.caches.delayHistogram             |       70224     99.43%     99.43% |          83      0.12%     99.55% |         114      0.16%     99.71% |         130      0.18%     99.89% |          75      0.11%    100.00% |           1      0.00%    100.00% |           0      0.00%    100.00% |           0      0.00%    100.00% |           0      0.00%    100.00% |           1      0.00%    100.00% # delay histogram for all message (Unspecified)
system.caches.delayHistogram::total             70628                       # delay histogram for all message (Unspecified)
system.caches.m_outstandReqHistSeqr::bucket_size            2                       (Unspecified)
system.caches.m_outstandReqHistSeqr::max_bucket           19                       (Unspecified)
system.caches.m_outstandReqHistSeqr::samples     27812517                       (Unspecified)
system.caches.m_outstandReqHistSeqr::mean     1.341756                       (Unspecified)
system.caches.m_outstandReqHistSeqr::gmean     1.233142                       (Unspecified)
system.caches.m_outstandReqHistSeqr::stdev     0.700319                       (Unspecified)
system.caches.m_outstandReqHistSeqr      |    20571490     73.96%     73.96% |     6770448     24.34%     98.31% |      431693      1.55%     99.86% |       12804      0.05%     99.91% |        9946      0.04%     99.94% |       10352      0.04%     99.98% |        2919      0.01%     99.99% |        1623      0.01%    100.00% |        1242      0.00%    100.00% |           0      0.00%    100.00% (Unspecified)
system.caches.m_outstandReqHistSeqr::total     27812517                       (Unspecified)
system.caches.m_latencyHistSeqr::bucket_size           64                       (Unspecified)
system.caches.m_latencyHistSeqr::max_bucket          639                       (Unspecified)
system.caches.m_latencyHistSeqr::samples     28101442                       (Unspecified)
system.caches.m_latencyHistSeqr::mean        1.114655                       (Unspecified)
system.caches.m_latencyHistSeqr::gmean       1.012733                       (Unspecified)
system.caches.m_latencyHistSeqr::stdev       3.214806                       (Unspecified)
system.caches.m_latencyHistSeqr          |    28074802     99.91%     99.91% |       23527      0.08%     99.99% |        2465      0.01%    100.00% |         278      0.00%    100.00% |         224      0.00%    100.00% |         114      0.00%    100.00% |          13      0.00%    100.00% |          18      0.00%    100.00% |           1      0.00%    100.00% |           0      0.00%    100.00% (Unspecified)
system.caches.m_latencyHistSeqr::total       28101442                       (Unspecified)
system.caches.m_hitLatencyHistSeqr::bucket_size           32                       (Unspecified)
system.caches.m_hitLatencyHistSeqr::max_bucket          319                       (Unspecified)
system.caches.m_hitLatencyHistSeqr::samples     28065872                       (Unspecified)
system.caches.m_hitLatencyHistSeqr::mean     1.010330                       (Unspecified)
system.caches.m_hitLatencyHistSeqr::gmean     1.007164                       (Unspecified)
system.caches.m_hitLatencyHistSeqr::stdev     0.120372                       (Unspecified)
system.caches.m_hitLatencyHistSeqr       |    28065862    100.00%    100.00% |           7      0.00%    100.00% |           1      0.00%    100.00% |           0      0.00%    100.00% |           0      0.00%    100.00% |           0      0.00%    100.00% |           1      0.00%    100.00% |           0      0.00%    100.00% |           1      0.00%    100.00% |           0      0.00%    100.00% (Unspecified)
system.caches.m_hitLatencyHistSeqr::total     28065872                       (Unspecified)
system.caches.m_missLatencyHistSeqr::bucket_size           64                       (Unspecified)
system.caches.m_missLatencyHistSeqr::max_bucket          639                       (Unspecified)
system.caches.m_missLatencyHistSeqr::samples        35570                       (Unspecified)
system.caches.m_missLatencyHistSeqr::mean    83.430756                       (Unspecified)
system.caches.m_missLatencyHistSeqr::gmean    78.519347                       (Unspecified)
system.caches.m_missLatencyHistSeqr::stdev    37.000592                       (Unspecified)
system.caches.m_missLatencyHistSeqr      |        8933     25.11%     25.11% |       23526     66.14%     91.25% |        2465      6.93%     98.18% |         277      0.78%     98.96% |         223      0.63%     99.59% |         114      0.32%     99.91% |          13      0.04%     99.95% |          18      0.05%    100.00% |           1      0.00%    100.00% |           0      0.00%    100.00% (Unspecified)
system.caches.m_missLatencyHistSeqr::total        35570                       (Unspecified)
system.caches.delayVCHist.vnet_1::bucket_size            1                       # delay histogram for vnet_1 (Unspecified)
system.caches.delayVCHist.vnet_1::max_bucket            9                       # delay histogram for vnet_1 (Unspecified)
system.caches.delayVCHist.vnet_1::samples        35570                       # delay histogram for vnet_1 (Unspecified)
system.caches.delayVCHist.vnet_1::mean       0.001743                       # delay histogram for vnet_1 (Unspecified)
system.caches.delayVCHist.vnet_1::stdev      0.103346                       # delay histogram for vnet_1 (Unspecified)
system.caches.delayVCHist.vnet_1         |       35558     99.97%     99.97% |           0      0.00%     99.97% |           3      0.01%     99.97% |           0      0.00%     99.97% |           2      0.01%     99.98% |           0      0.00%     99.98% |           4      0.01%     99.99% |           0      0.00%     99.99% |           3      0.01%    100.00% |           0      0.00%    100.00% # delay histogram for vnet_1 (Unspecified)
system.caches.delayVCHist.vnet_1::total         35570                       # delay histogram for vnet_1 (Unspecified)
system.caches.delayVCHist.vnet_2::bucket_size            2                       # delay histogram for vnet_2 (Unspecified)
system.caches.delayVCHist.vnet_2::max_bucket           19                       # delay histogram for vnet_2 (Unspecified)
system.caches.delayVCHist.vnet_2::samples        35058                       # delay histogram for vnet_2 (Unspecified)
system.caches.delayVCHist.vnet_2::mean       0.056136                       # delay histogram for vnet_2 (Unspecified)
system.caches.delayVCHist.vnet_2::stdev      0.574474                       # delay histogram for vnet_2 (Unspecified)
system.caches.delayVCHist.vnet_2         |       34666     98.88%     98.88% |          80      0.23%     99.11% |         112      0.32%     99.43% |         126      0.36%     99.79% |          72      0.21%     99.99% |           1      0.00%    100.00% |           0      0.00%    100.00% |           0      0.00%    100.00% |           0      0.00%    100.00% |           1      0.00%    100.00% # delay histogram for vnet_2 (Unspecified)
system.caches.delayVCHist.vnet_2::total         35058                       # delay histogram for vnet_2 (Unspecified)
system.caches.L1Cache_Controller.Load         8934957      0.00%      0.00% (Unspecified)
system.caches.L1Cache_Controller.Ifetch       8215250      0.00%      0.00% (Unspecified)
system.caches.L1Cache_Controller.Store       10951236      0.00%      0.00% (Unspecified)
system.caches.L1Cache_Controller.Data           35570      0.00%      0.00% (Unspecified)
system.caches.L1Cache_Controller.Replacement        35059      0.00%      0.00% (Unspecified)
system.caches.L1Cache_Controller.Writeback_Ack        35058      0.00%      0.00% (Unspecified)
system.caches.L1Cache_Controller.I.Load         14336      0.00%      0.00% (Unspecified)
system.caches.L1Cache_Controller.I.Ifetch         2098      0.00%      0.00% (Unspecified)
system.caches.L1Cache_Controller.I.Store        19137      0.00%      0.00% (Unspecified)
system.caches.L1Cache_Controller.M.Load       8920621      0.00%      0.00% (Unspecified)
system.caches.L1Cache_Controller.M.Ifetch      8213152      0.00%      0.00% (Unspecified)
system.caches.L1Cache_Controller.M.Store     10932099      0.00%      0.00% (Unspecified)
system.caches.L1Cache_Controller.M.Replacement        35059      0.00%      0.00% (Unspecified)
system.caches.L1Cache_Controller.MI.Writeback_Ack        35058      0.00%      0.00% (Unspecified)
system.caches.L1Cache_Controller.IS.Data        16433      0.00%      0.00% (Unspecified)
system.caches.L1Cache_Controller.IM.Data        19137      0.00%      0.00% (Unspecified)
system.caches.Directory_Controller.GETX         35570      0.00%      0.00% (Unspecified)
system.caches.Directory_Controller.PUTX         35058      0.00%      0.00% (Unspecified)
system.caches.Directory_Controller.Memory_Data        35570      0.00%      0.00% (Unspecified)
system.caches.Directory_Controller.Memory_Ack        35058      0.00%      0.00% (Unspecified)
system.caches.Directory_Controller.I.GETX        35570      0.00%      0.00% (Unspecified)
system.caches.Directory_Controller.M.PUTX        35058      0.00%      0.00% (Unspecified)
system.caches.Directory_Controller.IM.Memory_Data        35570      0.00%      0.00% (Unspecified)
system.caches.Directory_Controller.MI.Memory_Ack        35058      0.00%      0.00% (Unspecified)
system.caches.MachineType.Directory.miss_mach_latency_hist_seqr::bucket_size           64                       (Unspecified)
system.caches.MachineType.Directory.miss_mach_latency_hist_seqr::max_bucket          639                       (Unspecified)
system.caches.MachineType.Directory.miss_mach_latency_hist_seqr::samples        35570                       (Unspecified)
system.caches.MachineType.Directory.miss_mach_latency_hist_seqr::mean    83.430756                       (Unspecified)
system.caches.MachineType.Directory.miss_mach_latency_hist_seqr::gmean    78.519347                       (Unspecified)
system.caches.MachineType.Directory.miss_mach_latency_hist_seqr::stdev    37.000592                       (Unspecified)
system.caches.MachineType.Directory.miss_mach_latency_hist_seqr |        8933     25.11%     25.11% |       23526     66.14%     91.25% |        2465      6.93%     98.18% |         277      0.78%     98.96% |         223      0.63%     99.59% |         114      0.32%     99.91% |          13      0.04%     99.95% |          18      0.05%    100.00% |           1      0.00%    100.00% |           0      0.00%    100.00% (Unspecified)
system.caches.MachineType.Directory.miss_mach_latency_hist_seqr::total        35570                       (Unspecified)
system.caches.MachineType.Directory.miss_latency_hist_seqr.issue_to_initial_request::bucket_size            1                       (Unspecified)
system.caches.MachineType.Directory.miss_latency_hist_seqr.issue_to_initial_request::max_bucket            9                       (Unspecified)
system.caches.MachineType.Directory.miss_latency_hist_seqr.issue_to_initial_request::samples            1                       (Unspecified)
system.caches.MachineType.Directory.miss_latency_hist_seqr.issue_to_initial_request::stdev          nan                       (Unspecified)
system.caches.MachineType.Directory.miss_latency_hist_seqr.issue_to_initial_request |           1    100.00%    100.00% |           0      0.00%    100.00% |           0      0.00%    100.00% |           0      0.00%    100.00% |           0      0.00%    100.00% |           0      0.00%    100.00% |           0      0.00%    100.00% |           0      0.00%    100.00% |           0      0.00%    100.00% |           0      0.00%    100.00% (Unspecified)
system.caches.MachineType.Directory.miss_latency_hist_seqr.issue_to_initial_request::total            1                       (Unspecified)
system.caches.MachineType.Directory.miss_latency_hist_seqr.initial_to_forward::bucket_size            1                       (Unspecified)
system.caches.MachineType.Directory.miss_latency_hist_seqr.initial_to_forward::max_bucket            9                       (Unspecified)
system.caches.MachineType.Directory.miss_latency_hist_seqr.initial_to_forward::samples            1                       (Unspecified)
system.caches.MachineType.Directory.miss_latency_hist_seqr.initial_to_forward::stdev          nan                       (Unspecified)
system.caches.MachineType.Directory.miss_latency_hist_seqr.initial_to_forward |           1    100.00%    100.00% |           0      0.00%    100.00% |           0      0.00%    100.00% |           0      0.00%    100.00% |           0      0.00%    100.00% |           0      0.00%    100.00% |           0      0.00%    100.00% |           0      0.00%    100.00% |           0      0.00%    100.00% |           0      0.00%    100.00% (Unspecified)
system.caches.MachineType.Directory.miss_latency_hist_seqr.initial_to_forward::total            1                       (Unspecified)
system.caches.MachineType.Directory.miss_latency_hist_seqr.forward_to_first_response::bucket_size            1                       (Unspecified)
system.caches.MachineType.Directory.miss_latency_hist_seqr.forward_to_first_response::max_bucket            9                       (Unspecified)
system.caches.MachineType.Directory.miss_latency_hist_seqr.forward_to_first_response::samples            1                       (Unspecified)
system.caches.MachineType.Directory.miss_latency_hist_seqr.forward_to_first_response::stdev          nan                       (Unspecified)
system.caches.MachineType.Directory.miss_latency_hist_seqr.forward_to_first_response |           1    100.00%    100.00% |           0      0.00%    100.00% |           0      0.00%    100.00% |           0      0.00%    100.00% |           0      0.00%    100.00% |           0      0.00%    100.00% |           0      0.00%    100.00% |           0      0.00%    100.00% |           0      0.00%    100.00% |           0      0.00%    100.00% (Unspecified)
system.caches.MachineType.Directory.miss_latency_hist_seqr.forward_to_first_response::total            1                       (Unspecified)
system.caches.MachineType.Directory.miss_latency_hist_seqr.first_response_to_completion::bucket_size            8                       (Unspecified)
system.caches.MachineType.Directory.miss_latency_hist_seqr.first_response_to_completion::max_bucket           79                       (Unspecified)
system.caches.MachineType.Directory.miss_latency_hist_seqr.first_response_to_completion::samples            1                       (Unspecified)
system.caches.MachineType.Directory.miss_latency_hist_seqr.first_response_to_completion::mean           73                       (Unspecified)
system.caches.MachineType.Directory.miss_latency_hist_seqr.first_response_to_completion::gmean    73.000000                       (Unspecified)
system.caches.MachineType.Directory.miss_latency_hist_seqr.first_response_to_completion::stdev          nan                       (Unspecified)
system.caches.MachineType.Directory.miss_latency_hist_seqr.first_response_to_completion |           0      0.00%      0.00% |           0      0.00%      0.00% |           0      0.00%      0.00% |           0      0.00%      0.00% |           0      0.00%      0.00% |           0      0.00%      0.00% |           0      0.00%      0.00% |           0      0.00%      0.00% |           0      0.00%      0.00% |           1    100.00%    100.00% (Unspecified)
system.caches.MachineType.Directory.miss_latency_hist_seqr.first_response_to_completion::total            1                       (Unspecified)
system.caches.MachineType.Directory.incomplete_times_seqr        35569                       (Unspecified)
system.caches.RequestType.LD.latency_hist_seqr::bucket_size           64                       (Unspecified)
system.caches.RequestType.LD.latency_hist_seqr::max_bucket          639                       (Unspecified)
system.caches.RequestType.LD.latency_hist_seqr::samples      8934957                       (Unspecified)
system.caches.RequestType.LD.latency_hist_seqr::mean     1.128136                       (Unspecified)
system.caches.RequestType.LD.latency_hist_seqr::gmean     1.006951                       (Unspecified)
system.caches.RequestType.LD.latency_hist_seqr::stdev     3.585870                       (Unspecified)
system.caches.RequestType.LD.latency_hist_seqr |     8926497     99.91%     99.91% |        7032      0.08%     99.98% |        1110      0.01%    100.00% |         128      0.00%    100.00% |         119      0.00%    100.00% |          56      0.00%    100.00% |           7      0.00%    100.00% |           8      0.00%    100.00% |           0      0.00%    100.00% |           0      0.00%    100.00% (Unspecified)
system.caches.RequestType.LD.latency_hist_seqr::total      8934957                       (Unspecified)
system.caches.RequestType.LD.hit_latency_hist_seqr::bucket_size            2                       (Unspecified)
system.caches.RequestType.LD.hit_latency_hist_seqr::max_bucket           19                       (Unspecified)
system.caches.RequestType.LD.hit_latency_hist_seqr::samples      8920621                       (Unspecified)
system.caches.RequestType.LD.hit_latency_hist_seqr::mean     1.000011                       (Unspecified)
system.caches.RequestType.LD.hit_latency_hist_seqr::gmean     1.000002                       (Unspecified)
system.caches.RequestType.LD.hit_latency_hist_seqr::stdev     0.013045                       (Unspecified)
system.caches.RequestType.LD.hit_latency_hist_seqr |     8920613    100.00%    100.00% |           1      0.00%    100.00% |           2      0.00%    100.00% |           0      0.00%    100.00% |           0      0.00%    100.00% |           0      0.00%    100.00% |           0      0.00%    100.00% |           0      0.00%    100.00% |           1      0.00%    100.00% |           4      0.00%    100.00% (Unspecified)
system.caches.RequestType.LD.hit_latency_hist_seqr::total      8920621                       (Unspecified)
system.caches.RequestType.LD.miss_latency_hist_seqr::bucket_size           64                       (Unspecified)
system.caches.RequestType.LD.miss_latency_hist_seqr::max_bucket          639                       (Unspecified)
system.caches.RequestType.LD.miss_latency_hist_seqr::samples        14336                       (Unspecified)
system.caches.RequestType.LD.miss_latency_hist_seqr::mean    80.854283                       (Unspecified)
system.caches.RequestType.LD.miss_latency_hist_seqr::gmean    74.878991                       (Unspecified)
system.caches.RequestType.LD.miss_latency_hist_seqr::stdev    40.590767                       (Unspecified)
system.caches.RequestType.LD.miss_latency_hist_seqr |        5876     40.99%     40.99% |        7032     49.05%     90.04% |        1110      7.74%     97.78% |         128      0.89%     98.67% |         119      0.83%     99.50% |          56      0.39%     99.90% |           7      0.05%     99.94% |           8      0.06%    100.00% |           0      0.00%    100.00% |           0      0.00%    100.00% (Unspecified)
system.caches.RequestType.LD.miss_latency_hist_seqr::total        14336                       (Unspecified)
system.caches.RequestType.ST.latency_hist_seqr::bucket_size           64                       (Unspecified)
system.caches.RequestType.ST.latency_hist_seqr::max_bucket          639                       (Unspecified)
system.caches.RequestType.ST.latency_hist_seqr::samples     10484965                       (Unspecified)
system.caches.RequestType.ST.latency_hist_seqr::mean     1.168129                       (Unspecified)
system.caches.RequestType.ST.latency_hist_seqr::gmean     1.018672                       (Unspecified)
system.caches.RequestType.ST.latency_hist_seqr::stdev     3.871770                       (Unspecified)
system.caches.RequestType.ST.latency_hist_seqr |    10467708     99.84%     99.84% |       15817      0.15%     99.99% |        1162      0.01%    100.00% |         126      0.00%    100.00% |          91      0.00%    100.00% |          49      0.00%    100.00% |           3      0.00%    100.00% |           9      0.00%    100.00% |           0      0.00%    100.00% |           0      0.00%    100.00% (Unspecified)
system.caches.RequestType.ST.latency_hist_seqr::total     10484965                       (Unspecified)
system.caches.RequestType.ST.hit_latency_hist_seqr::bucket_size           32                       (Unspecified)
system.caches.RequestType.ST.hit_latency_hist_seqr::max_bucket          319                       (Unspecified)
system.caches.RequestType.ST.hit_latency_hist_seqr::samples     10466249                       (Unspecified)
system.caches.RequestType.ST.hit_latency_hist_seqr::mean     1.015385                       (Unspecified)
system.caches.RequestType.ST.hit_latency_hist_seqr::gmean     1.010688                       (Unspecified)
system.caches.RequestType.ST.hit_latency_hist_seqr::stdev     0.150175                       (Unspecified)
system.caches.RequestType.ST.hit_latency_hist_seqr |    10466243    100.00%    100.00% |           4      0.00%    100.00% |           1      0.00%    100.00% |           0      0.00%    100.00% |           0      0.00%    100.00% |           0      0.00%    100.00% |           0      0.00%    100.00% |           0      0.00%    100.00% |           1      0.00%    100.00% |           0      0.00%    100.00% (Unspecified)
system.caches.RequestType.ST.hit_latency_hist_seqr::total     10466249                       (Unspecified)
system.caches.RequestType.ST.miss_latency_hist_seqr::bucket_size           64                       (Unspecified)
system.caches.RequestType.ST.miss_latency_hist_seqr::max_bucket          639                       (Unspecified)
system.caches.RequestType.ST.miss_latency_hist_seqr::samples        18716                       (Unspecified)
system.caches.RequestType.ST.miss_latency_hist_seqr::mean    86.584633                       (Unspecified)
system.caches.RequestType.ST.miss_latency_hist_seqr::gmean    82.985043                       (Unspecified)
system.caches.RequestType.ST.miss_latency_hist_seqr::stdev    32.807961                       (Unspecified)
system.caches.RequestType.ST.miss_latency_hist_seqr |        1461      7.81%      7.81% |       15816     84.51%     92.31% |        1162      6.21%     98.52% |         126      0.67%     99.19% |          90      0.48%     99.67% |          49      0.26%     99.94% |           3      0.02%     99.95% |           9      0.05%    100.00% |           0      0.00%    100.00% |           0      0.00%    100.00% (Unspecified)
system.caches.RequestType.ST.miss_latency_hist_seqr::total        18716                       (Unspecified)
system.caches.RequestType.IFETCH.latency_hist_seqr::bucket_size           64                       (Unspecified)
system.caches.RequestType.IFETCH.latency_hist_seqr::max_bucket          639                       (Unspecified)
system.caches.RequestType.IFETCH.latency_hist_seqr::samples      8215249                       (Unspecified)
system.caches.RequestType.IFETCH.latency_hist_seqr::mean     1.018275                       (Unspecified)
system.caches.RequestType.IFETCH.latency_hist_seqr::gmean     1.001073                       (Unspecified)
system.caches.RequestType.IFETCH.latency_hist_seqr::stdev     1.308866                       (Unspecified)
system.caches.RequestType.IFETCH.latency_hist_seqr |     8214564     99.99%     99.99% |         496      0.01%    100.00% |         151      0.00%    100.00% |          17      0.00%    100.00% |          12      0.00%    100.00% |           6      0.00%    100.00% |           2      0.00%    100.00% |           1      0.00%    100.00% |           0      0.00%    100.00% |           0      0.00%    100.00% (Unspecified)
system.caches.RequestType.IFETCH.latency_hist_seqr::total      8215249                       (Unspecified)
system.caches.RequestType.IFETCH.hit_latency_hist_seqr::bucket_size            2                       (Unspecified)
system.caches.RequestType.IFETCH.hit_latency_hist_seqr::max_bucket           19                       (Unspecified)
system.caches.RequestType.IFETCH.hit_latency_hist_seqr::samples      8213152                       (Unspecified)
system.caches.RequestType.IFETCH.hit_latency_hist_seqr::mean     1.000004                       (Unspecified)
system.caches.RequestType.IFETCH.hit_latency_hist_seqr::gmean     1.000001                       (Unspecified)
system.caches.RequestType.IFETCH.hit_latency_hist_seqr::stdev     0.007716                       (Unspecified)
system.caches.RequestType.IFETCH.hit_latency_hist_seqr |     8213149    100.00%    100.00% |           1      0.00%    100.00% |           0      0.00%    100.00% |           0      0.00%    100.00% |           0      0.00%    100.00% |           0      0.00%    100.00% |           0      0.00%    100.00% |           1      0.00%    100.00% |           0      0.00%    100.00% |           1      0.00%    100.00% (Unspecified)
system.caches.RequestType.IFETCH.hit_latency_hist_seqr::total      8213152                       (Unspecified)
system.caches.RequestType.IFETCH.miss_latency_hist_seqr::bucket_size           64                       (Unspecified)
system.caches.RequestType.IFETCH.miss_latency_hist_seqr::max_bucket          639                       (Unspecified)
system.caches.RequestType.IFETCH.miss_latency_hist_seqr::samples         2097                       (Unspecified)
system.caches.RequestType.IFETCH.miss_latency_hist_seqr::mean    72.579876                       (Unspecified)
system.caches.RequestType.IFETCH.miss_latency_hist_seqr::gmean    66.541452                       (Unspecified)
system.caches.RequestType.IFETCH.miss_latency_hist_seqr::stdev    39.869114                       (Unspecified)
system.caches.RequestType.IFETCH.miss_latency_hist_seqr |        1412     67.33%     67.33% |         496     23.65%     90.99% |         151      7.20%     98.19% |          17      0.81%     99.00% |          12      0.57%     99.57% |           6      0.29%     99.86% |           2      0.10%     99.95% |           1      0.05%    100.00% |           0      0.00%    100.00% |           0      0.00%    100.00% (Unspecified)
system.caches.RequestType.IFETCH.miss_latency_hist_seqr::total         2097                       (Unspecified)
system.caches.RequestType.RMW_Read.latency_hist_seqr::bucket_size           64                       (Unspecified)
system.caches.RequestType.RMW_Read.latency_hist_seqr::max_bucket          639                       (Unspecified)
system.caches.RequestType.RMW_Read.latency_hist_seqr::samples       466271                       (Unspecified)
system.caches.RequestType.RMW_Read.latency_hist_seqr::mean     1.351997                       (Unspecified)
system.caches.RequestType.RMW_Read.latency_hist_seqr::gmean     1.215190                       (Unspecified)
system.caches.RequestType.RMW_Read.latency_hist_seqr::stdev     2.984866                       (Unspecified)
system.caches.RequestType.RMW_Read.latency_hist_seqr |      466033     99.95%     99.95% |         182      0.04%     99.99% |          42      0.01%    100.00% |           7      0.00%    100.00% |           2      0.00%    100.00% |           3      0.00%    100.00% |           1      0.00%    100.00% |           0      0.00%    100.00% |           1      0.00%    100.00% |           0      0.00%    100.00% (Unspecified)
system.caches.RequestType.RMW_Read.latency_hist_seqr::total       466271                       (Unspecified)
system.caches.RequestType.RMW_Read.hit_latency_hist_seqr::bucket_size           32                       (Unspecified)
system.caches.RequestType.RMW_Read.hit_latency_hist_seqr::max_bucket          319                       (Unspecified)
system.caches.RequestType.RMW_Read.hit_latency_hist_seqr::samples       465850                       (Unspecified)
system.caches.RequestType.RMW_Read.hit_latency_hist_seqr::mean     1.276398                       (Unspecified)
system.caches.RequestType.RMW_Read.hit_latency_hist_seqr::gmean     1.210641                       (Unspecified)
system.caches.RequestType.RMW_Read.hit_latency_hist_seqr::stdev     0.535396                       (Unspecified)
system.caches.RequestType.RMW_Read.hit_latency_hist_seqr |      465846    100.00%    100.00% |           3      0.00%    100.00% |           0      0.00%    100.00% |           0      0.00%    100.00% |           0      0.00%    100.00% |           0      0.00%    100.00% |           1      0.00%    100.00% |           0      0.00%    100.00% |           0      0.00%    100.00% |           0      0.00%    100.00% (Unspecified)
system.caches.RequestType.RMW_Read.hit_latency_hist_seqr::total       465850                       (Unspecified)
system.caches.RequestType.RMW_Read.miss_latency_hist_seqr::bucket_size           64                       (Unspecified)
system.caches.RequestType.RMW_Read.miss_latency_hist_seqr::max_bucket          639                       (Unspecified)
system.caches.RequestType.RMW_Read.miss_latency_hist_seqr::samples          421                       (Unspecified)
system.caches.RequestType.RMW_Read.miss_latency_hist_seqr::mean    85.004751                       (Unspecified)
system.caches.RequestType.RMW_Read.miss_latency_hist_seqr::gmean    77.108689                       (Unspecified)
system.caches.RequestType.RMW_Read.miss_latency_hist_seqr::stdev    50.519539                       (Unspecified)
system.caches.RequestType.RMW_Read.miss_latency_hist_seqr |         184     43.71%     43.71% |         182     43.23%     86.94% |          42      9.98%     96.91% |           6      1.43%     98.34% |           2      0.48%     98.81% |           3      0.71%     99.52% |           1      0.24%     99.76% |           0      0.00%     99.76% |           1      0.24%    100.00% |           0      0.00%    100.00% (Unspecified)
system.caches.RequestType.RMW_Read.miss_latency_hist_seqr::total          421                       (Unspecified)
system.caches.RequestTypeMachineType.LD.Directory.miss_type_mach_latency_hist_seqr::bucket_size           64                       (Unspecified)
system.caches.RequestTypeMachineType.LD.Directory.miss_type_mach_latency_hist_seqr::max_bucket          639                       (Unspecified)
system.caches.RequestTypeMachineType.LD.Directory.miss_type_mach_latency_hist_seqr::samples        14336                       (Unspecified)
system.caches.RequestTypeMachineType.LD.Directory.miss_type_mach_latency_hist_seqr::mean    80.854283                       (Unspecified)
system.caches.RequestTypeMachineType.LD.Directory.miss_type_mach_latency_hist_seqr::gmean    74.878991                       (Unspecified)
system.caches.RequestTypeMachineType.LD.Directory.miss_type_mach_latency_hist_seqr::stdev    40.590767                       (Unspecified)
system.caches.RequestTypeMachineType.LD.Directory.miss_type_mach_latency_hist_seqr |        5876     40.99%     40.99% |        7032     49.05%     90.04% |        1110      7.74%     97.78% |         128      0.89%     98.67% |         119      0.83%     99.50% |          56      0.39%     99.90% |           7      0.05%     99.94% |           8      0.06%    100.00% |           0      0.00%    100.00% |           0      0.00%    100.00% (Unspecified)
system.caches.RequestTypeMachineType.LD.Directory.miss_type_mach_latency_hist_seqr::total        14336                       (Unspecified)
system.caches.RequestTypeMachineType.ST.Directory.miss_type_mach_latency_hist_seqr::bucket_size           64                       (Unspecified)
system.caches.RequestTypeMachineType.ST.Directory.miss_type_mach_latency_hist_seqr::max_bucket          639                       (Unspecified)
system.caches.RequestTypeMachineType.ST.Directory.miss_type_mach_latency_hist_seqr::samples        18716                       (Unspecified)
system.caches.RequestTypeMachineType.ST.Directory.miss_type_mach_latency_hist_seqr::mean    86.584633                       (Unspecified)
system.caches.RequestTypeMachineType.ST.Directory.miss_type_mach_latency_hist_seqr::gmean    82.985043                       (Unspecified)
system.caches.RequestTypeMachineType.ST.Directory.miss_type_mach_latency_hist_seqr::stdev    32.807961                       (Unspecified)
system.caches.RequestTypeMachineType.ST.Directory.miss_type_mach_latency_hist_seqr |        1461      7.81%      7.81% |       15816     84.51%     92.31% |        1162      6.21%     98.52% |         126      0.67%     99.19% |          90      0.48%     99.67% |          49      0.26%     99.94% |           3      0.02%     99.95% |           9      0.05%    100.00% |           0      0.00%    100.00% |           0      0.00%    100.00% (Unspecified)
system.caches.RequestTypeMachineType.ST.Directory.miss_type_mach_latency_hist_seqr::total        18716                       (Unspecified)
system.caches.RequestTypeMachineType.IFETCH.Directory.miss_type_mach_latency_hist_seqr::bucket_size           64                       (Unspecified)
system.caches.RequestTypeMachineType.IFETCH.Directory.miss_type_mach_latency_hist_seqr::max_bucket          639                       (Unspecified)
system.caches.RequestTypeMachineType.IFETCH.Directory.miss_type_mach_latency_hist_seqr::samples         2097                       (Unspecified)
system.caches.RequestTypeMachineType.IFETCH.Directory.miss_type_mach_latency_hist_seqr::mean    72.579876                       (Unspecified)
system.caches.RequestTypeMachineType.IFETCH.Directory.miss_type_mach_latency_hist_seqr::gmean    66.541452                       (Unspecified)
system.caches.RequestTypeMachineType.IFETCH.Directory.miss_type_mach_latency_hist_seqr::stdev    39.869114                       (Unspecified)
system.caches.RequestTypeMachineType.IFETCH.Directory.miss_type_mach_latency_hist_seqr |        1412     67.33%     67.33% |         496     23.65%     90.99% |         151      7.20%     98.19% |          17      0.81%     99.00% |          12      0.57%     99.57% |           6      0.29%     99.86% |           2      0.10%     99.95% |           1      0.05%    100.00% |           0      0.00%    100.00% |           0      0.00%    100.00% (Unspecified)
system.caches.RequestTypeMachineType.IFETCH.Directory.miss_type_mach_latency_hist_seqr::total         2097                       (Unspecified)
system.caches.RequestTypeMachineType.RMW_Read.Directory.miss_type_mach_latency_hist_seqr::bucket_size           64                       (Unspecified)
system.caches.RequestTypeMachineType.RMW_Read.Directory.miss_type_mach_latency_hist_seqr::max_bucket          639                       (Unspecified)
system.caches.RequestTypeMachineType.RMW_Read.Directory.miss_type_mach_latency_hist_seqr::samples          421                       (Unspecified)
system.caches.RequestTypeMachineType.RMW_Read.Directory.miss_type_mach_latency_hist_seqr::mean    85.004751                       (Unspecified)
system.caches.RequestTypeMachineType.RMW_Read.Directory.miss_type_mach_latency_hist_seqr::gmean    77.108689                       (Unspecified)
system.caches.RequestTypeMachineType.RMW_Read.Directory.miss_type_mach_latency_hist_seqr::stdev    50.519539                       (Unspecified)
system.caches.RequestTypeMachineType.RMW_Read.Directory.miss_type_mach_latency_hist_seqr |         184     43.71%     43.71% |         182     43.23%     86.94% |          42      9.98%     96.91% |           6      1.43%     98.34% |           2      0.48%     98.81% |           3      0.71%     99.52% |           1      0.24%     99.76% |           0      0.00%     99.76% |           1      0.24%    100.00% |           0      0.00%    100.00% (Unspecified)
system.caches.RequestTypeMachineType.RMW_Read.Directory.miss_type_mach_latency_hist_seqr::total          421                       (Unspecified)
system.caches.controllers0.delayHistogram::samples        70628                       # delay_histogram (Unspecified)
system.caches.controllers0.delayHistogram::mean     0.028742                       # delay_histogram (Unspecified)
system.caches.controllers0.delayHistogram::stdev     0.412226                       # delay_histogram (Unspecified)
system.caches.controllers0.delayHistogram::0-1        70224     99.43%     99.43% # delay_histogram (Unspecified)
system.caches.controllers0.delayHistogram::2-3           83      0.12%     99.55% # delay_histogram (Unspecified)
system.caches.controllers0.delayHistogram::4-5          114      0.16%     99.71% # delay_histogram (Unspecified)
system.caches.controllers0.delayHistogram::6-7          130      0.18%     99.89% # delay_histogram (Unspecified)
system.caches.controllers0.delayHistogram::8-9           75      0.11%    100.00% # delay_histogram (Unspecified)
system.caches.controllers0.delayHistogram::10-11            1      0.00%    100.00% # delay_histogram (Unspecified)
system.caches.controllers0.delayHistogram::18-19            1      0.00%    100.00% # delay_histogram (Unspecified)
system.caches.controllers0.delayHistogram::total        70628                       # delay_histogram (Unspecified)
system.caches.controllers0.cacheMemory.m_demand_hits     28065872                       # Number of cache demand hits (Unspecified)
system.caches.controllers0.cacheMemory.m_demand_misses        35571                       # Number of cache demand misses (Unspecified)
system.caches.controllers0.cacheMemory.m_demand_accesses     28101443                       # Number of cache demand accesses (Unspecified)
system.caches.controllers0.forwardToCache.m_buf_msgs     0.000685                       # Average number of messages in buffer (Unspecified)
system.caches.controllers0.forwardToCache.m_stall_time  5000.369286                       # Average number of cycles messages are stalled in this MB (Unspecified)
system.caches.controllers0.mandatoryQueue.m_buf_msgs     0.548905                       # Average number of messages in buffer (Unspecified)
system.caches.controllers0.mandatoryQueue.m_stall_time  1000.040980                       # Average number of cycles messages are stalled in this MB (Unspecified)
system.caches.controllers0.power_state.pwrStateResidencyTicks::UNDEFINED  51196023000                       # Cumulative time (in ticks) in various power states (Tick)
system.caches.controllers0.requestFromCache.m_buf_msgs     0.002759                       # Average number of messages in buffer (Unspecified)
system.caches.controllers0.requestFromCache.m_stall_time  1999.999883                       # Average number of cycles messages are stalled in this MB (Unspecified)
system.caches.controllers0.responseToCache.m_buf_msgs     0.000695                       # Average number of messages in buffer (Unspecified)
system.caches.controllers0.responseToCache.m_stall_time  5000.030647                       # Average number of cycles messages are stalled in this MB (Unspecified)
system.caches.controllers1.forwardFromDir.m_buf_msgs     0.000685                       # Average number of messages in buffer (Unspecified)
system.caches.controllers1.forwardFromDir.m_stall_time   999.812817                       # Average number of cycles messages are stalled in this MB (Unspecified)
system.caches.controllers1.power_state.pwrStateResidencyTicks::UNDEFINED  51196023000                       # Cumulative time (in ticks) in various power states (Tick)
system.caches.controllers1.requestToDir.m_buf_msgs     0.001380                       # Average number of messages in buffer (Unspecified)
system.caches.controllers1.requestToDir.m_stall_time 10007.676846                       # Average number of cycles messages are stalled in this MB (Unspecified)
system.caches.controllers1.requestToMemory.m_buf_msgs     0.001380                       # Average number of messages in buffer (Unspecified)
system.caches.controllers1.requestToMemory.m_stall_time  1000.003907                       # Average number of cycles messages are stalled in this MB (Unspecified)
system.caches.controllers1.responseFromDir.m_buf_msgs     0.000695                       # Average number of messages in buffer (Unspecified)
system.caches.controllers1.responseFromDir.m_stall_time   999.998652                       # Average number of cycles messages are stalled in this MB (Unspecified)
system.caches.controllers1.responseFromMemory.m_buf_msgs     0.001734                       # Average number of messages in buffer (Unspecified)
system.caches.controllers1.responseFromMemory.m_stall_time   999.998672                       # Average number of cycles messages are stalled in this MB (Unspecified)
system.caches.network.msg_count.Control         71140                       (Unspecified)
system.caches.network.msg_byte.Control         569120                       (Unspecified)
system.caches.network.msg_count.Data            70117                       (Unspecified)
system.caches.network.msg_byte.Data           5048424                       (Unspecified)
system.caches.network.msg_count.Response_Data        71140                       (Unspecified)
system.caches.network.msg_byte.Response_Data      5122080                       (Unspecified)
system.caches.network.msg_count.Writeback_Control        70116                       (Unspecified)
system.caches.network.msg_byte.Writeback_Control       560928                       (Unspecified)
system.caches.network.int_link_buffers2.m_buf_msgs     0.001380                       # Average number of messages in buffer (Unspecified)
system.caches.network.int_link_buffers2.m_stall_time  8007.677432                       # Average number of cycles messages are stalled in this MB (Unspecified)
system.caches.network.int_link_buffers8.m_buf_msgs     0.000685                       # Average number of messages in buffer (Unspecified)
system.caches.network.int_link_buffers8.m_stall_time  3000.743925                       # Average number of cycles messages are stalled in this MB (Unspecified)
system.caches.network.int_link_buffers9.m_buf_msgs     0.000695                       # Average number of messages in buffer (Unspecified)
system.caches.network.int_link_buffers9.m_stall_time  3000.033616                       # Average number of cycles messages are stalled in this MB (Unspecified)
system.caches.network.power_state.pwrStateResidencyTicks::UNDEFINED  51196023000                       # Cumulative time (in ticks) in various power states (Tick)
system.caches.network.routers0.percent_links_utilized     0.344891                       (Unspecified)
system.caches.network.routers0.msg_count.Control::2        35570                       (Unspecified)
system.caches.network.routers0.msg_bytes.Control::2       284560                       (Unspecified)
system.caches.network.routers0.msg_count.Data::2        35059                       (Unspecified)
system.caches.network.routers0.msg_bytes.Data::2      2524248                       (Unspecified)
system.caches.network.routers0.msg_count.Response_Data::4        35570                       (Unspecified)
system.caches.network.routers0.msg_bytes.Response_Data::4      2561040                       (Unspecified)
system.caches.network.routers0.msg_count.Writeback_Control::3        35058                       (Unspecified)
system.caches.network.routers0.msg_bytes.Writeback_Control::3       280464                       (Unspecified)
system.caches.network.routers0.port_buffers3.m_buf_msgs     0.000685                       # Average number of messages in buffer (Unspecified)
system.caches.network.routers0.port_buffers3.m_stall_time  4000.556625                       # Average number of cycles messages are stalled in this MB (Unspecified)
system.caches.network.routers0.port_buffers4.m_buf_msgs     0.000695                       # Average number of messages in buffer (Unspecified)
system.caches.network.routers0.port_buffers4.m_stall_time  4000.032151                       # Average number of cycles messages are stalled in this MB (Unspecified)
system.caches.network.routers0.port_buffers7.m_buf_msgs     0.004497                       # Average number of messages in buffer (Unspecified)
system.caches.network.routers0.port_buffers7.m_stall_time  7007.677667                       # Average number of cycles messages are stalled in this MB (Unspecified)
system.caches.network.routers0.power_state.pwrStateResidencyTicks::UNDEFINED  51196023000                       # Cumulative time (in ticks) in various power states (Tick)
system.caches.network.routers0.throttle00.link_utilization     0.346890                       (Unspecified)
system.caches.network.routers0.throttle00.msg_count.Response_Data::4        35570                       (Unspecified)
system.caches.network.routers0.throttle00.msg_bytes.Response_Data::4      2561040                       (Unspecified)
system.caches.network.routers0.throttle00.msg_count.Writeback_Control::3        35058                       (Unspecified)
system.caches.network.routers0.throttle00.msg_bytes.Writeback_Control::3       280464                       (Unspecified)
system.caches.network.routers0.throttle01.link_utilization     0.342892                       (Unspecified)
system.caches.network.routers0.throttle01.msg_count.Control::2        35570                       (Unspecified)
system.caches.network.routers0.throttle01.msg_bytes.Control::2       284560                       (Unspecified)
system.caches.network.routers0.throttle01.msg_count.Data::2        35059                       (Unspecified)
system.caches.network.routers0.throttle01.msg_bytes.Data::2      2524248                       (Unspecified)
system.caches.network.routers1.percent_links_utilized     0.344890                       (Unspecified)
system.caches.network.routers1.msg_count.Control::2        35570                       (Unspecified)
system.caches.network.routers1.msg_bytes.Control::2       284560                       (Unspecified)
system.caches.network.routers1.msg_count.Data::2        35058                       (Unspecified)
system.caches.network.routers1.msg_bytes.Data::2      2524176                       (Unspecified)
system.caches.network.routers1.msg_count.Response_Data::4        35570                       (Unspecified)
system.caches.network.routers1.msg_bytes.Response_Data::4      2561040                       (Unspecified)
system.caches.network.routers1.msg_count.Writeback_Control::3        35058                       (Unspecified)
system.caches.network.routers1.msg_bytes.Writeback_Control::3       280464                       (Unspecified)
system.caches.network.routers1.port_buffers2.m_buf_msgs     0.001380                       # Average number of messages in buffer (Unspecified)
system.caches.network.routers1.port_buffers2.m_stall_time  9007.677159                       # Average number of cycles messages are stalled in this MB (Unspecified)
system.caches.network.routers1.port_buffers6.m_buf_msgs     0.000704                       # Average number of messages in buffer (Unspecified)
system.caches.network.routers1.port_buffers6.m_stall_time  2000.931186                       # Average number of cycles messages are stalled in this MB (Unspecified)
system.caches.network.routers1.port_buffers7.m_buf_msgs     0.000695                       # Average number of messages in buffer (Unspecified)
system.caches.network.routers1.port_buffers7.m_stall_time  2000.035042                       # Average number of cycles messages are stalled in this MB (Unspecified)
system.caches.network.routers1.power_state.pwrStateResidencyTicks::UNDEFINED  51196023000                       # Cumulative time (in ticks) in various power states (Tick)
system.caches.network.routers1.throttle00.link_utilization     0.342890                       (Unspecified)
system.caches.network.routers1.throttle00.msg_count.Control::2        35570                       (Unspecified)
system.caches.network.routers1.throttle00.msg_bytes.Control::2       284560                       (Unspecified)
system.caches.network.routers1.throttle00.msg_count.Data::2        35058                       (Unspecified)
system.caches.network.routers1.throttle00.msg_bytes.Data::2      2524176                       (Unspecified)
system.caches.network.routers1.throttle01.link_utilization     0.346890                       (Unspecified)
system.caches.network.routers1.throttle01.msg_count.Response_Data::4        35570                       (Unspecified)
system.caches.network.routers1.throttle01.msg_bytes.Response_Data::4      2561040                       (Unspecified)
system.caches.network.routers1.throttle01.msg_count.Writeback_Control::3        35058                       (Unspecified)
system.caches.network.routers1.throttle01.msg_bytes.Writeback_Control::3       280464                       (Unspecified)
system.caches.power_state.pwrStateResidencyTicks::UNDEFINED  51196023000                       # Cumulative time (in ticks) in various power states (Tick)
system.caches.sequencers.power_state.pwrStateResidencyTicks::UNDEFINED  51196023000                       # Cumulative time (in ticks) in various power states (Tick)
system.caches.sys_port_proxy.power_state.pwrStateResidencyTicks::UNDEFINED  51196023000                       # Cumulative time (in ticks) in various power states (Tick)
system.clk_domain.clock                          1000                       # Clock period in ticks (Tick)
system.clk_domain.voltage_domain.voltage            1                       # Voltage in Volts (Volt)
system.cpu.numCycles                         51196024                       # Number of cpu cycles simulated (Cycle)
system.cpu.numWorkItemsStarted                      0                       # Number of work items this cpu started (Count)
system.cpu.numWorkItemsCompleted                    0                       # Number of work items this cpu completed (Count)
system.cpu.instsAdded                        95174930                       # Number of instructions added to the IQ (excludes non-spec) (Count)
system.cpu.nonSpecInstsAdded                   917755                       # Number of non-speculative instructions added to the IQ (Count)
system.cpu.instsIssued                       92147043                       # Number of instructions issued (Count)
system.cpu.squashedInstsIssued                   2241                       # Number of squashed instructions issued (Count)
system.cpu.squashedInstsExamined             12890710                       # Number of squashed instructions iterated over during squash; mainly for profiling (Count)
system.cpu.squashedOperandsExamined          15335455                       # Number of squashed operands that are examined and possibly removed from graph (Count)
system.cpu.squashedNonSpecRemoved                 115                       # Number of squashed non-spec instructions that were removed (Count)
system.cpu.numIssuedDist::samples            51136443                       # Number of insts issued each cycle (Count)
system.cpu.numIssuedDist::mean               1.801984                       # Number of insts issued each cycle (Count)
system.cpu.numIssuedDist::stdev              2.043976                       # Number of insts issued each cycle (Count)
system.cpu.numIssuedDist::underflows                0      0.00%      0.00% # Number of insts issued each cycle (Count)
system.cpu.numIssuedDist::0                  20870046     40.81%     40.81% # Number of insts issued each cycle (Count)
system.cpu.numIssuedDist::1                   8352247     16.33%     57.15% # Number of insts issued each cycle (Count)
system.cpu.numIssuedDist::2                   5264577     10.30%     67.44% # Number of insts issued each cycle (Count)
system.cpu.numIssuedDist::3                   5684237     11.12%     78.56% # Number of insts issued each cycle (Count)
system.cpu.numIssuedDist::4                   3407080      6.66%     85.22% # Number of insts issued each cycle (Count)
system.cpu.numIssuedDist::5                   4008844      7.84%     93.06% # Number of insts issued each cycle (Count)
system.cpu.numIssuedDist::6                   2522700      4.93%     97.99% # Number of insts issued each cycle (Count)
system.cpu.numIssuedDist::7                    809505      1.58%     99.58% # Number of insts issued each cycle (Count)
system.cpu.numIssuedDist::8                    217207      0.42%    100.00% # Number of insts issued each cycle (Count)
system.cpu.numIssuedDist::overflows                 0      0.00%    100.00% # Number of insts issued each cycle (Count)
system.cpu.numIssuedDist::min_value                 0                       # Number of insts issued each cycle (Count)
system.cpu.numIssuedDist::max_value                 8                       # Number of insts issued each cycle (Count)
system.cpu.numIssuedDist::total              51136443                       # Number of insts issued each cycle (Count)
system.cpu.statFuBusy::No_OpClass                   0      0.00%      0.00% # attempts to use FU when none available (Count)
system.cpu.statFuBusy::IntAlu                   62588     10.91%     10.91% # attempts to use FU when none available (Count)
system.cpu.statFuBusy::IntMult                      0      0.00%     10.91% # attempts to use FU when none available (Count)
system.cpu.statFuBusy::IntDiv                       0      0.00%     10.91% # attempts to use FU when none available (Count)
system.cpu.statFuBusy::FloatAdd                     0      0.00%     10.91% # attempts to use FU when none available (Count)
system.cpu.statFuBusy::FloatCmp                     0      0.00%     10.91% # attempts to use FU when none available (Count)
system.cpu.statFuBusy::FloatCvt                     0      0.00%     10.91% # attempts to use FU when none available (Count)
system.cpu.statFuBusy::FloatMult                    0      0.00%     10.91% # attempts to use FU when none available (Count)
system.cpu.statFuBusy::FloatMultAcc                 0      0.00%     10.91% # attempts to use FU when none available (Count)
system.cpu.statFuBusy::FloatDiv                     0      0.00%     10.91% # attempts to use FU when none available (Count)
system.cpu.statFuBusy::FloatMisc                    0      0.00%     10.91% # attempts to use FU when none available (Count)
system.cpu.statFuBusy::FloatSqrt                    0      0.00%     10.91% # attempts to use FU when none available (Count)
system.cpu.statFuBusy::SimdAdd                      2      0.00%     10.91% # attempts to use FU when none available (Count)
system.cpu.statFuBusy::SimdAddAcc                   0      0.00%     10.91% # attempts to use FU when none available (Count)
system.cpu.statFuBusy::SimdAlu                     51      0.01%     10.92% # attempts to use FU when none available (Count)
system.cpu.statFuBusy::SimdCmp                      0      0.00%     10.92% # attempts to use FU when none available (Count)
system.cpu.statFuBusy::SimdCvt                    858      0.15%     11.07% # attempts to use FU when none available (Count)
system.cpu.statFuBusy::SimdMisc                     4      0.00%     11.07% # attempts to use FU when none available (Count)
system.cpu.statFuBusy::SimdMult                     0      0.00%     11.07% # attempts to use FU when none available (Count)
system.cpu.statFuBusy::SimdMultAcc                  0      0.00%     11.07% # attempts to use FU when none available (Count)
system.cpu.statFuBusy::SimdShift                   45      0.01%     11.08% # attempts to use FU when none available (Count)
system.cpu.statFuBusy::SimdShiftAcc                 0      0.00%     11.08% # attempts to use FU when none available (Count)
system.cpu.statFuBusy::SimdDiv                      0      0.00%     11.08% # attempts to use FU when none available (Count)
system.cpu.statFuBusy::SimdSqrt                     0      0.00%     11.08% # attempts to use FU when none available (Count)
system.cpu.statFuBusy::SimdFloatAdd                 0      0.00%     11.08% # attempts to use FU when none available (Count)
system.cpu.statFuBusy::SimdFloatAlu                 0      0.00%     11.08% # attempts to use FU when none available (Count)
system.cpu.statFuBusy::SimdFloatCmp                 0      0.00%     11.08% # attempts to use FU when none available (Count)
system.cpu.statFuBusy::SimdFloatCvt                 0      0.00%     11.08% # attempts to use FU when none available (Count)
system.cpu.statFuBusy::SimdFloatDiv                 0      0.00%     11.08% # attempts to use FU when none available (Count)
system.cpu.statFuBusy::SimdFloatMisc                0      0.00%     11.08% # attempts to use FU when none available (Count)
system.cpu.statFuBusy::SimdFloatMult                0      0.00%     11.08% # attempts to use FU when none available (Count)
system.cpu.statFuBusy::SimdFloatMultAcc             0      0.00%     11.08% # attempts to use FU when none available (Count)
system.cpu.statFuBusy::SimdFloatSqrt                0      0.00%     11.08% # attempts to use FU when none available (Count)
system.cpu.statFuBusy::SimdReduceAdd                0      0.00%     11.08% # attempts to use FU when none available (Count)
system.cpu.statFuBusy::SimdReduceAlu                0      0.00%     11.08% # attempts to use FU when none available (Count)
system.cpu.statFuBusy::SimdReduceCmp                0      0.00%     11.08% # attempts to use FU when none available (Count)
system.cpu.statFuBusy::SimdFloatReduceAdd            0      0.00%     11.08% # attempts to use FU when none available (Count)
system.cpu.statFuBusy::SimdFloatReduceCmp            0      0.00%     11.08% # attempts to use FU when none available (Count)
system.cpu.statFuBusy::SimdAes                      0      0.00%     11.08% # attempts to use FU when none available (Count)
system.cpu.statFuBusy::SimdAesMix                   0      0.00%     11.08% # attempts to use FU when none available (Count)
system.cpu.statFuBusy::SimdSha1Hash                 0      0.00%     11.08% # attempts to use FU when none available (Count)
system.cpu.statFuBusy::SimdSha1Hash2                0      0.00%     11.08% # attempts to use FU when none available (Count)
system.cpu.statFuBusy::SimdSha256Hash               0      0.00%     11.08% # attempts to use FU when none available (Count)
system.cpu.statFuBusy::SimdSha256Hash2              0      0.00%     11.08% # attempts to use FU when none available (Count)
system.cpu.statFuBusy::SimdShaSigma2                0      0.00%     11.08% # attempts to use FU when none available (Count)
system.cpu.statFuBusy::SimdShaSigma3                0      0.00%     11.08% # attempts to use FU when none available (Count)
system.cpu.statFuBusy::SimdPredAlu                  0      0.00%     11.08% # attempts to use FU when none available (Count)
system.cpu.statFuBusy::MemRead                 502742     87.67%     98.75% # attempts to use FU when none available (Count)
system.cpu.statFuBusy::MemWrite                  6781      1.18%     99.93% # attempts to use FU when none available (Count)
system.cpu.statFuBusy::FloatMemRead               215      0.04%     99.97% # attempts to use FU when none available (Count)
system.cpu.statFuBusy::FloatMemWrite              176      0.03%    100.00% # attempts to use FU when none available (Count)
system.cpu.statFuBusy::IprAccess                    0      0.00%    100.00% # attempts to use FU when none available (Count)
system.cpu.statFuBusy::InstPrefetch                 0      0.00%    100.00% # attempts to use FU when none available (Count)
system.cpu.statIssuedInstType_0::No_OpClass      1593882      1.73%      1.73% # Number of instructions issued per FU type, per thread (Count)
system.cpu.statIssuedInstType_0::IntAlu      53663729     58.24%     59.97% # Number of instructions issued per FU type, per thread (Count)
system.cpu.statIssuedInstType_0::IntMult         1914      0.00%     59.97% # Number of instructions issued per FU type, per thread (Count)
system.cpu.statIssuedInstType_0::IntDiv         37226      0.04%     60.01% # Number of instructions issued per FU type, per thread (Count)
system.cpu.statIssuedInstType_0::FloatAdd      1842204      2.00%     62.01% # Number of instructions issued per FU type, per thread (Count)
system.cpu.statIssuedInstType_0::FloatCmp            0      0.00%     62.01% # Number of instructions issued per FU type, per thread (Count)
system.cpu.statIssuedInstType_0::FloatCvt       262384      0.28%     62.29% # Number of instructions issued per FU type, per thread (Count)
system.cpu.statIssuedInstType_0::FloatMult       262144      0.28%     62.58% # Number of instructions issued per FU type, per thread (Count)
system.cpu.statIssuedInstType_0::FloatMultAcc            0      0.00%     62.58% # Number of instructions issued per FU type, per thread (Count)
system.cpu.statIssuedInstType_0::FloatDiv            0      0.00%     62.58% # Number of instructions issued per FU type, per thread (Count)
system.cpu.statIssuedInstType_0::FloatMisc            0      0.00%     62.58% # Number of instructions issued per FU type, per thread (Count)
system.cpu.statIssuedInstType_0::FloatSqrt            0      0.00%     62.58% # Number of instructions issued per FU type, per thread (Count)
system.cpu.statIssuedInstType_0::SimdAdd         7045      0.01%     62.59% # Number of instructions issued per FU type, per thread (Count)
system.cpu.statIssuedInstType_0::SimdAddAcc            0      0.00%     62.59% # Number of instructions issued per FU type, per thread (Count)
system.cpu.statIssuedInstType_0::SimdAlu       275340      0.30%     62.88% # Number of instructions issued per FU type, per thread (Count)
system.cpu.statIssuedInstType_0::SimdCmp            8      0.00%     62.88% # Number of instructions issued per FU type, per thread (Count)
system.cpu.statIssuedInstType_0::SimdCvt        14711      0.02%     62.90% # Number of instructions issued per FU type, per thread (Count)
system.cpu.statIssuedInstType_0::SimdMisc       406469      0.44%     63.34% # Number of instructions issued per FU type, per thread (Count)
system.cpu.statIssuedInstType_0::SimdMult            0      0.00%     63.34% # Number of instructions issued per FU type, per thread (Count)
system.cpu.statIssuedInstType_0::SimdMultAcc            0      0.00%     63.34% # Number of instructions issued per FU type, per thread (Count)
system.cpu.statIssuedInstType_0::SimdShift         1086      0.00%     63.34% # Number of instructions issued per FU type, per thread (Count)
system.cpu.statIssuedInstType_0::SimdShiftAcc            0      0.00%     63.34% # Number of instructions issued per FU type, per thread (Count)
system.cpu.statIssuedInstType_0::SimdDiv            0      0.00%     63.34% # Number of instructions issued per FU type, per thread (Count)
system.cpu.statIssuedInstType_0::SimdSqrt            0      0.00%     63.34% # Number of instructions issued per FU type, per thread (Count)
system.cpu.statIssuedInstType_0::SimdFloatAdd       524289      0.57%     63.91% # Number of instructions issued per FU type, per thread (Count)
system.cpu.statIssuedInstType_0::SimdFloatAlu            0      0.00%     63.91% # Number of instructions issued per FU type, per thread (Count)
system.cpu.statIssuedInstType_0::SimdFloatCmp            0      0.00%     63.91% # Number of instructions issued per FU type, per thread (Count)
system.cpu.statIssuedInstType_0::SimdFloatCvt       393262      0.43%     64.34% # Number of instructions issued per FU type, per thread (Count)
system.cpu.statIssuedInstType_0::SimdFloatDiv       131079      0.14%     64.48% # Number of instructions issued per FU type, per thread (Count)
system.cpu.statIssuedInstType_0::SimdFloatMisc            0      0.00%     64.48% # Number of instructions issued per FU type, per thread (Count)
system.cpu.statIssuedInstType_0::SimdFloatMult       393216      0.43%     64.91% # Number of instructions issued per FU type, per thread (Count)
system.cpu.statIssuedInstType_0::SimdFloatMultAcc            0      0.00%     64.91% # Number of instructions issued per FU type, per thread (Count)
system.cpu.statIssuedInstType_0::SimdFloatSqrt            0      0.00%     64.91% # Number of instructions issued per FU type, per thread (Count)
system.cpu.statIssuedInstType_0::SimdReduceAdd            0      0.00%     64.91% # Number of instructions issued per FU type, per thread (Count)
system.cpu.statIssuedInstType_0::SimdReduceAlu            0      0.00%     64.91% # Number of instructions issued per FU type, per thread (Count)
system.cpu.statIssuedInstType_0::SimdReduceCmp            0      0.00%     64.91% # Number of instructions issued per FU type, per thread (Count)
system.cpu.statIssuedInstType_0::SimdFloatReduceAdd            0      0.00%     64.91% # Number of instructions issued per FU type, per thread (Count)
system.cpu.statIssuedInstType_0::SimdFloatReduceCmp            0      0.00%     64.91% # Number of instructions issued per FU type, per thread (Count)
system.cpu.statIssuedInstType_0::SimdAes            0      0.00%     64.91% # Number of instructions issued per FU type, per thread (Count)
system.cpu.statIssuedInstType_0::SimdAesMix            0      0.00%     64.91% # Number of instructions issued per FU type, per thread (Count)
system.cpu.statIssuedInstType_0::SimdSha1Hash            0      0.00%     64.91% # Number of instructions issued per FU type, per thread (Count)
system.cpu.statIssuedInstType_0::SimdSha1Hash2            0      0.00%     64.91% # Number of instructions issued per FU type, per thread (Count)
system.cpu.statIssuedInstType_0::SimdSha256Hash            0      0.00%     64.91% # Number of instructions issued per FU type, per thread (Count)
system.cpu.statIssuedInstType_0::SimdSha256Hash2            0      0.00%     64.91% # Number of instructions issued per FU type, per thread (Count)
system.cpu.statIssuedInstType_0::SimdShaSigma2            0      0.00%     64.91% # Number of instructions issued per FU type, per thread (Count)
system.cpu.statIssuedInstType_0::SimdShaSigma3            0      0.00%     64.91% # Number of instructions issued per FU type, per thread (Count)
system.cpu.statIssuedInstType_0::SimdPredAlu            0      0.00%     64.91% # Number of instructions issued per FU type, per thread (Count)
system.cpu.statIssuedInstType_0::MemRead     19043137     20.67%     85.57% # Number of instructions issued per FU type, per thread (Count)
system.cpu.statIssuedInstType_0::MemWrite      9592990     10.41%     95.98% # Number of instructions issued per FU type, per thread (Count)
system.cpu.statIssuedInstType_0::FloatMemRead      2377854      2.58%     98.56% # Number of instructions issued per FU type, per thread (Count)
system.cpu.statIssuedInstType_0::FloatMemWrite      1323074      1.44%    100.00% # Number of instructions issued per FU type, per thread (Count)
system.cpu.statIssuedInstType_0::IprAccess            0      0.00%    100.00% # Number of instructions issued per FU type, per thread (Count)
system.cpu.statIssuedInstType_0::InstPrefetch            0      0.00%    100.00% # Number of instructions issued per FU type, per thread (Count)
system.cpu.statIssuedInstType_0::total       92147043                       # Number of instructions issued per FU type, per thread (Count)
system.cpu.issueRate                         1.799887                       # Inst issue rate ((Count/Cycle))
system.cpu.fuBusy                              573462                       # FU busy when requested (Count)
system.cpu.fuBusyRate                        0.006223                       # FU busy rate (busy events/executed inst) ((Count/Count))
system.cpu.intInstQueueReads                217472391                       # Number of integer instruction queue reads (Count)
system.cpu.intInstQueueWrites                99684618                       # Number of integer instruction queue writes (Count)
system.cpu.intInstQueueWakeupAccesses        82222095                       # Number of integer instruction queue wakeup accesses (Count)
system.cpu.fpInstQueueReads                  18533836                       # Number of floating instruction queue reads (Count)
system.cpu.fpInstQueueWrites                  9301584                       # Number of floating instruction queue writes (Count)
system.cpu.fpInstQueueWakeupAccesses          9263449                       # Number of floating instruction queue wakeup accesses (Count)
system.cpu.vecInstQueueReads                        0                       # Number of vector instruction queue reads (Count)
system.cpu.vecInstQueueWrites                       0                       # Number of vector instruction queue writes (Count)
system.cpu.vecInstQueueWakeupAccesses               0                       # Number of vector instruction queue wakeup accesses (Count)
system.cpu.intAluAccesses                    81859106                       # Number of integer alu accesses (Count)
system.cpu.fpAluAccesses                      9267517                       # Number of floating point alu accesses (Count)
system.cpu.vecAluAccesses                           0                       # Number of vector alu accesses (Count)
system.cpu.idleCycles                               0                       # Number of cycles IEW is idle (Cycle)
system.cpu.squashCycles                        148953                       # Number of cycles IEW is squashing (Cycle)
system.cpu.blockCycles                        1998402                       # Number of cycles IEW is blocking (Cycle)
system.cpu.unblockCycles                        23292                       # Number of cycles IEW is unblocking (Cycle)
system.cpu.dispatchedInsts                   96092685                       # Number of instructions dispatched to IQ (Count)
system.cpu.dispSquashedInsts                      800                       # Number of squashed instructions skipped by dispatch (Count)
system.cpu.dispLoadInsts                     22235905                       # Number of dispatched load instructions (Count)
system.cpu.dispStoreInsts                    11310711                       # Number of dispatched store instructions (Count)
system.cpu.dispNonSpecInsts                    917751                       # Number of dispatched non-speculative instructions (Count)
system.cpu.iqFullEvents                         10496                       # Number of times the IQ has become full, causing a stall (Count)
system.cpu.lsqFullEvents                         8628                       # Number of times the LSQ has become full, causing a stall (Count)
system.cpu.memOrderViolationEvents               3309                       # Number of memory order violations (Count)
system.cpu.predictedTakenIncorrect              72563                       # Number of branches that were predicted taken incorrectly (Count)
system.cpu.predictedNotTakenIncorrect           75423                       # Number of branches that were predicted not taken incorrectly (Count)
system.cpu.branchMispredicts                   147986                       # Number of branch mispredicts detected at execute (Count)
system.cpu.numInsts                          91679229                       # Number of executed instructions (Count)
system.cpu.numLoadInsts                      21299728                       # Number of load instructions executed (Count)
system.cpu.numSquashedInsts                    467809                       # Number of squashed instructions skipped in execute (Count)
system.cpu.numSwp                                   0                       # Number of swp insts executed (Count)
system.cpu.numNop                                   0                       # Number of nop insts executed (Count)
system.cpu.numRefs                           32075612                       # Number of memory reference insts executed (Count)
system.cpu.numBranches                        6891212                       # Number of branches executed (Count)
system.cpu.numStoreInsts                     10775884                       # Number of stores executed (Count)
system.cpu.numRate                           1.790749                       # Inst execution rate ((Count/Cycle))
system.cpu.instsToCommit                     91570400                       # Cumulative count of insts sent to commit (Count)
system.cpu.writebackCount                    91485544                       # Cumulative count of insts written-back (Count)
system.cpu.producerInst                      66175242                       # Number of instructions producing a value (Count)
system.cpu.consumerInst                     108675569                       # Number of instructions consuming a value (Count)
system.cpu.wbRate                            1.786966                       # Insts written-back per cycle ((Count/Cycle))
system.cpu.wbFanout                          0.608925                       # Average fanout of values written-back ((Count/Count))
system.cpu.timesIdled                            1417                       # Number of times that the entire CPU went into an idle state and unscheduled itself (Count)
system.cpu.idleCycles                           59581                       # Total number of cycles that the CPU has spent unscheduled due to idling (Cycle)
system.cpu.committedInsts                    46698355                       # Number of Instructions Simulated (Count)
system.cpu.committedOps                      83201955                       # Number of Ops (including micro ops) Simulated (Count)
system.cpu.cpi                               1.096313                       # CPI: Cycles Per Instruction ((Cycle/Count))
system.cpu.totalCpi                          1.096313                       # CPI: Total CPI of All Threads ((Cycle/Count))
system.cpu.ipc                               0.912148                       # IPC: Instructions Per Cycle ((Count/Cycle))
system.cpu.totalIpc                          0.912148                       # IPC: Total IPC of All Threads ((Count/Cycle))
system.cpu.intRegfileReads                  144614292                       # Number of integer regfile reads (Count)
system.cpu.intRegfileWrites                  64310660                       # Number of integer regfile writes (Count)
system.cpu.fpRegfileReads                     9169757                       # Number of floating regfile reads (Count)
system.cpu.fpRegfileWrites                    7409209                       # Number of floating regfile writes (Count)
system.cpu.ccRegfileReads                    19308445                       # number of cc regfile reads (Count)
system.cpu.ccRegfileWrites                   19679457                       # number of cc regfile writes (Count)
system.cpu.miscRegfileReads                  47010099                       # number of misc regfile reads (Count)
system.cpu.miscRegfileWrites                  1835143                       # number of misc regfile writes (Count)
system.cpu.MemDepUnit__0.insertedLoads       22235905                       # Number of loads inserted to the mem dependence unit. (Count)
system.cpu.MemDepUnit__0.insertedStores      11310711                       # Number of stores inserted to the mem dependence unit. (Count)
system.cpu.MemDepUnit__0.conflictingLoads      7573349                       # Number of conflicting loads. (Count)
system.cpu.MemDepUnit__0.conflictingStores      2209733                       # Number of conflicting stores. (Count)
system.cpu.MemDepUnit__1.insertedLoads              0                       # Number of loads inserted to the mem dependence unit. (Count)
system.cpu.MemDepUnit__1.insertedStores             0                       # Number of stores inserted to the mem dependence unit. (Count)
system.cpu.MemDepUnit__1.conflictingLoads            0                       # Number of conflicting loads. (Count)
system.cpu.MemDepUnit__1.conflictingStores            0                       # Number of conflicting stores. (Count)
system.cpu.MemDepUnit__2.insertedLoads              0                       # Number of loads inserted to the mem dependence unit. (Count)
system.cpu.MemDepUnit__2.insertedStores             0                       # Number of stores inserted to the mem dependence unit. (Count)
system.cpu.MemDepUnit__2.conflictingLoads            0                       # Number of conflicting loads. (Count)
system.cpu.MemDepUnit__2.conflictingStores            0                       # Number of conflicting stores. (Count)
system.cpu.MemDepUnit__3.insertedLoads              0                       # Number of loads inserted to the mem dependence unit. (Count)
system.cpu.MemDepUnit__3.insertedStores             0                       # Number of stores inserted to the mem dependence unit. (Count)
system.cpu.MemDepUnit__3.conflictingLoads            0                       # Number of conflicting loads. (Count)
system.cpu.MemDepUnit__3.conflictingStores            0                       # Number of conflicting stores. (Count)
system.cpu.branchPred.lookups                 7476235                       # Number of BP lookups (Count)
system.cpu.branchPred.condPredicted           2754296                       # Number of conditional branches predicted (Count)
system.cpu.branchPred.condIncorrect            146036                       # Number of conditional branches incorrect (Count)
system.cpu.branchPred.BTBLookups              4253180                       # Number of BTB lookups (Count)
system.cpu.branchPred.BTBHits                 4251019                       # Number of BTB hits (Count)
system.cpu.branchPred.BTBHitRatio            0.999492                       # BTB Hit Ratio (Ratio)
[...]
system.mem_ctrl.rdPerTurnAround::samples          561                       # Reads before turning the bus around for writes (Count)
system.mem_ctrl.rdPerTurnAround::mean              16                       # Reads before turning the bus around for writes (Count)
system.mem_ctrl.rdPerTurnAround::gmean      15.997124                       # Reads before turning the bus around for writes (Count)
system.mem_ctrl.rdPerTurnAround::stdev       0.298807                       # Reads before turning the bus around for writes (Count)
system.mem_ctrl.rdPerTurnAround::12                 1      0.18%      0.18% # Reads before turning the bus around for writes (Count)
system.mem_ctrl.rdPerTurnAround::14                 2      0.36%      0.53% # Reads before turning the bus around for writes (Count)
system.mem_ctrl.rdPerTurnAround::15                 3      0.53%      1.07% # Reads before turning the bus around for writes (Count)
system.mem_ctrl.rdPerTurnAround::16               547     97.50%     98.57% # Reads before turning the bus around for writes (Count)
system.mem_ctrl.rdPerTurnAround::17                 7      1.25%     99.82% # Reads before turning the bus around for writes (Count)
system.mem_ctrl.rdPerTurnAround::20                 1      0.18%    100.00% # Reads before turning the bus around for writes (Count)
system.mem_ctrl.rdPerTurnAround::total            561                       # Reads before turning the bus around for writes (Count)
system.mem_ctrl.wrPerTurnAround::samples          561                       # Writes before turning the bus around for reads (Count)
system.mem_ctrl.wrPerTurnAround::mean       16.010695                       # Writes before turning the bus around for reads (Count)
system.mem_ctrl.wrPerTurnAround::gmean      16.010081                       # Writes before turning the bus around for reads (Count)
system.mem_ctrl.wrPerTurnAround::stdev       0.145993                       # Writes before turning the bus around for reads (Count)
system.mem_ctrl.wrPerTurnAround::16               558     99.47%     99.47% # Writes before turning the bus around for reads (Count)
system.mem_ctrl.wrPerTurnAround::18                 3      0.53%    100.00% # Writes before turning the bus around for reads (Count)
system.mem_ctrl.wrPerTurnAround::total            561                       # Writes before turning the bus around for reads (Count)
system.mem_ctrl.bytesReadWrQ                      384                       # Total number of bytes read from write queue (Byte)
system.mem_ctrl.bytesReadSys                   574848                       # Total read bytes from the system interface side (Byte)
system.mem_ctrl.bytesWrittenSys                574912                       # Total written bytes from the system interface side (Byte)
system.mem_ctrl.avgRdBWSys               757238811.96674645                       # Average system read bandwidth in Byte/s ((Byte/Second))
system.mem_ctrl.avgWrBWSys               757323118.22503710                       # Average system write bandwidth in Byte/s ((Byte/Second))
system.mem_ctrl.totGap                      759179000                       # Total gap between requests (Tick)
system.mem_ctrl.avgGap                       42258.78                       # Average gap between requests ((Tick/Count))
system.mem_ctrl.requestorReadBytes::caches.controllers1       574464                       # Per-requestor bytes read from memory (Byte)
system.mem_ctrl.requestorWriteBytes::caches.controllers1       574848                       # Per-requestor bytes write to memory (Byte)
system.mem_ctrl.requestorReadRate::caches.controllers1 756732974.417002439499                       # Per-requestor bytes read from memory rate ((Byte/Second))
system.mem_ctrl.requestorWriteRate::caches.controllers1 757238811.966746449471                       # Per-requestor bytes write to memory rate ((Byte/Second))
system.mem_ctrl.requestorReadAccesses::caches.controllers1         8982                       # Per-requestor read serviced memory accesses (Count)
system.mem_ctrl.requestorWriteAccesses::caches.controllers1         8983                       # Per-requestor write serviced memory accesses (Count)
system.mem_ctrl.requestorReadTotalLat::caches.controllers1    274140500                       # Per-requestor read total memory access latency (Tick)
system.mem_ctrl.requestorWriteTotalLat::caches.controllers1  18787882000                       # Per-requestor write total memory access latency (Tick)
system.mem_ctrl.requestorReadAvgLat::caches.controllers1     30521.10                       # Per-requestor read average memory access latency ((Tick/Count))
system.mem_ctrl.requestorWriteAvgLat::caches.controllers1   2091493.04                       # Per-requestor write average memory access latency ((Tick/Count))
system.mem_ctrl.dram.bytesRead::caches.controllers1       574848                       # Number of bytes read from this memory (Byte)
system.mem_ctrl.dram.bytesRead::total          574848                       # Number of bytes read from this memory (Byte)
system.mem_ctrl.dram.bytesWritten::caches.controllers1       574912                       # Number of bytes written to this memory (Byte)
system.mem_ctrl.dram.bytesWritten::total       574912                       # Number of bytes written to this memory (Byte)
system.mem_ctrl.dram.numReads::caches.controllers1         8982                       # Number of read requests responded to by this memory (Count)
system.mem_ctrl.dram.numReads::total             8982                       # Number of read requests responded to by this memory (Count)
system.mem_ctrl.dram.numWrites::caches.controllers1         8983                       # Number of write requests responded to by this memory (Count)
system.mem_ctrl.dram.numWrites::total            8983                       # Number of write requests responded to by this memory (Count)
system.mem_ctrl.dram.bwRead::caches.controllers1    757238812                       # Total read bandwidth from this memory ((Byte/Second))
system.mem_ctrl.dram.bwRead::total          757238812                       # Total read bandwidth from this memory ((Byte/Second))
system.mem_ctrl.dram.bwWrite::caches.controllers1    757323118                       # Write bandwidth from this memory ((Byte/Second))
system.mem_ctrl.dram.bwWrite::total         757323118                       # Write bandwidth from this memory ((Byte/Second))
system.mem_ctrl.dram.bwTotal::caches.controllers1   1514561930                       # Total bandwidth to/from this memory ((Byte/Second))
system.mem_ctrl.dram.bwTotal::total        1514561930                       # Total bandwidth to/from this memory ((Byte/Second))
system.mem_ctrl.dram.readBursts                  8976                       # Number of DRAM read bursts (Count)
system.mem_ctrl.dram.writeBursts                 8982                       # Number of DRAM write bursts (Count)
system.mem_ctrl.dram.perBankRdBursts::0           518                       # Per bank write bursts (Count)
system.mem_ctrl.dram.perBankRdBursts::1           543                       # Per bank write bursts (Count)
system.mem_ctrl.dram.perBankRdBursts::2           581                       # Per bank write bursts (Count)
system.mem_ctrl.dram.perBankRdBursts::3           585                       # Per bank write bursts (Count)
system.mem_ctrl.dram.perBankRdBursts::4           569                       # Per bank write bursts (Count)
system.mem_ctrl.dram.perBankRdBursts::5           547                       # Per bank write bursts (Count)
system.mem_ctrl.dram.perBankRdBursts::6           542                       # Per bank write bursts (Count)
system.mem_ctrl.dram.perBankRdBursts::7           611                       # Per bank write bursts (Count)
system.mem_ctrl.dram.perBankRdBursts::8           520                       # Per bank write bursts (Count)
system.mem_ctrl.dram.perBankRdBursts::9           573                       # Per bank write bursts (Count)
system.mem_ctrl.dram.perBankRdBursts::10          553                       # Per bank write bursts (Count)
system.mem_ctrl.dram.perBankRdBursts::11          453                       # Per bank write bursts (Count)
system.mem_ctrl.dram.perBankRdBursts::12          576                       # Per bank write bursts (Count)
system.mem_ctrl.dram.perBankRdBursts::13          645                       # Per bank write bursts (Count)
system.mem_ctrl.dram.perBankRdBursts::14          634                       # Per bank write bursts (Count)
system.mem_ctrl.dram.perBankRdBursts::15          526                       # Per bank write bursts (Count)
system.mem_ctrl.dram.perBankWrBursts::0           512                       # Per bank write bursts (Count)
system.mem_ctrl.dram.perBankWrBursts::1           516                       # Per bank write bursts (Count)
system.mem_ctrl.dram.perBankWrBursts::2           518                       # Per bank write bursts (Count)
system.mem_ctrl.dram.perBankWrBursts::3           550                       # Per bank write bursts (Count)
system.mem_ctrl.dram.perBankWrBursts::4           529                       # Per bank write bursts (Count)
system.mem_ctrl.dram.perBankWrBursts::5           525                       # Per bank write bursts (Count)
system.mem_ctrl.dram.perBankWrBursts::6           533                       # Per bank write bursts (Count)
system.mem_ctrl.dram.perBankWrBursts::7           566                       # Per bank write bursts (Count)
system.mem_ctrl.dram.perBankWrBursts::8           514                       # Per bank write bursts (Count)
system.mem_ctrl.dram.perBankWrBursts::9           558                       # Per bank write bursts (Count)
system.mem_ctrl.dram.perBankWrBursts::10          529                       # Per bank write bursts (Count)
system.mem_ctrl.dram.perBankWrBursts::11          525                       # Per bank write bursts (Count)
system.mem_ctrl.dram.perBankWrBursts::12          788                       # Per bank write bursts (Count)
system.mem_ctrl.dram.perBankWrBursts::13          660                       # Per bank write bursts (Count)
system.mem_ctrl.dram.perBankWrBursts::14          646                       # Per bank write bursts (Count)
system.mem_ctrl.dram.perBankWrBursts::15          513                       # Per bank write bursts (Count)
system.mem_ctrl.dram.totQLat                105840500                       # Total ticks spent queuing (Tick)
system.mem_ctrl.dram.totBusLat               44880000                       # Total ticks spent in databus transfers (Tick)
system.mem_ctrl.dram.totMemAccLat           274140500                       # Total ticks spent from burst creation until serviced by the DRAM (Tick)
system.mem_ctrl.dram.avgQLat                 11791.50                       # Average queueing delay per DRAM burst ((Tick/Count))
system.mem_ctrl.dram.avgBusLat                5000.00                       # Average bus latency per DRAM burst ((Tick/Count))
system.mem_ctrl.dram.avgMemAccLat            30541.50                       # Average memory access latency per DRAM burst ((Tick/Count))
system.mem_ctrl.dram.readRowHits                 8128                       # Number of row buffer hits during reads (Count)
system.mem_ctrl.dram.writeRowHits                8203                       # Number of row buffer hits during writes (Count)
system.mem_ctrl.dram.readRowHitRate             90.55                       # Row buffer hit rate for reads (Ratio)
system.mem_ctrl.dram.writeRowHitRate            91.33                       # Row buffer hit rate for writes (Ratio)
system.mem_ctrl.dram.bytesPerActivate::samples         1621                       # Bytes accessed per row activation (Byte)
system.mem_ctrl.dram.bytesPerActivate::mean   708.816780                       # Bytes accessed per row activation (Byte)
system.mem_ctrl.dram.bytesPerActivate::gmean   514.648333                       # Bytes accessed per row activation (Byte)
system.mem_ctrl.dram.bytesPerActivate::stdev   390.855086                       # Bytes accessed per row activation (Byte)
system.mem_ctrl.dram.bytesPerActivate::0-127          182     11.23%     11.23% # Bytes accessed per row activation (Byte)
system.mem_ctrl.dram.bytesPerActivate::128-255          186     11.47%     22.70% # Bytes accessed per row activation (Byte)
system.mem_ctrl.dram.bytesPerActivate::256-383           87      5.37%     28.07% # Bytes accessed per row activation (Byte)
system.mem_ctrl.dram.bytesPerActivate::384-511           73      4.50%     32.57% # Bytes accessed per row activation (Byte)
system.mem_ctrl.dram.bytesPerActivate::512-639           79      4.87%     37.45% # Bytes accessed per row activation (Byte)
system.mem_ctrl.dram.bytesPerActivate::640-767           46      2.84%     40.28% # Bytes accessed per row activation (Byte)
system.mem_ctrl.dram.bytesPerActivate::768-895           41      2.53%     42.81% # Bytes accessed per row activation (Byte)
system.mem_ctrl.dram.bytesPerActivate::896-1023           30      1.85%     44.66% # Bytes accessed per row activation (Byte)
system.mem_ctrl.dram.bytesPerActivate::1024-1151          897     55.34%    100.00% # Bytes accessed per row activation (Byte)
system.mem_ctrl.dram.bytesPerActivate::total         1621                       # Bytes accessed per row activation (Byte)
system.mem_ctrl.dram.bytesRead                 574464                       # Total number of bytes read from DRAM (Byte)
system.mem_ctrl.dram.bytesWritten              574848                       # Total number of bytes written to DRAM (Byte)
system.mem_ctrl.dram.avgRdBW               756.732974                       # Average DRAM read bandwidth in MiBytes/s ((Byte/Second))
system.mem_ctrl.dram.avgWrBW               757.238812                       # Average DRAM write bandwidth in MiBytes/s ((Byte/Second))
system.mem_ctrl.dram.peakBW                  12800.00                       # Theoretical peak bandwidth in MiByte/s ((Byte/Second))
system.mem_ctrl.dram.busUtil                    11.83                       # Data bus utilization in percentage (Ratio)
system.mem_ctrl.dram.busUtilRead                 5.91                       # Data bus utilization in percentage for reads (Ratio)
system.mem_ctrl.dram.busUtilWrite                5.92                       # Data bus utilization in percentage for writes (Ratio)
system.mem_ctrl.dram.pageHitRate                90.94                       # Row buffer hit rate, read and write combined (Ratio)
system.mem_ctrl.dram.power_state.pwrStateResidencyTicks::UNDEFINED    759137000                       # Cumulative time (in ticks) in various power states (Tick)
system.mem_ctrl.dram.rank0.actEnergy          5647740                       # Energy for activate commands per rank (pJ) (Joule)
system.mem_ctrl.dram.rank0.preEnergy          2979075                       # Energy for precharge commands per rank (pJ) (Joule)
system.mem_ctrl.dram.rank0.readEnergy        32101440                       # Energy for read commands per rank (pJ) (Joule)
system.mem_ctrl.dram.rank0.writeEnergy       22179780                       # Energy for write commands per rank (pJ) (Joule)
system.mem_ctrl.dram.rank0.refreshEnergy 59620080.000000                       # Energy for refresh commands per rank (pJ) (Joule)
system.mem_ctrl.dram.rank0.actBackEnergy    242955660                       # Energy for active background per rank (pJ) (Joule)
system.mem_ctrl.dram.rank0.preBackEnergy     86914560                       # Energy for precharge background per rank (pJ) (Joule)
system.mem_ctrl.dram.rank0.actPowerDownEnergy            0                       # Energy for active power-down per rank (pJ) (Joule)
system.mem_ctrl.dram.rank0.prePowerDownEnergy            0                       # Energy for precharge power-down per rank (pJ) (Joule)
system.mem_ctrl.dram.rank0.selfRefreshEnergy            0                       # Energy for self refresh per rank (pJ) (Joule)
system.mem_ctrl.dram.rank0.totalEnergy      452398335                       # Total energy per rank (pJ) (Joule)
system.mem_ctrl.dram.rank0.averagePower    595.937670                       # Core power per rank (mW) (Watt)
system.mem_ctrl.dram.rank0.totalIdleTime            0                       # Total Idle time Per DRAM Rank (Tick)
system.mem_ctrl.dram.rank0.pwrStateTime::IDLE    221687250                       # Time in different power states (Tick)
system.mem_ctrl.dram.rank0.pwrStateTime::REF     25220000                       # Time in different power states (Tick)
system.mem_ctrl.dram.rank0.pwrStateTime::SREF            0                       # Time in different power states (Tick)
system.mem_ctrl.dram.rank0.pwrStateTime::PRE_PDN            0                       # Time in different power states (Tick)
system.mem_ctrl.dram.rank0.pwrStateTime::ACT    512229750                       # Time in different power states (Tick)
system.mem_ctrl.dram.rank0.pwrStateTime::ACT_PDN            0                       # Time in different power states (Tick)
system.mem_ctrl.dram.rank1.actEnergy          5969040                       # Energy for activate commands per rank (pJ) (Joule)
system.mem_ctrl.dram.rank1.preEnergy          3172620                       # Energy for precharge commands per rank (pJ) (Joule)
system.mem_ctrl.dram.rank1.readEnergy        31987200                       # Energy for read commands per rank (pJ) (Joule)
system.mem_ctrl.dram.rank1.writeEnergy       24706260                       # Energy for write commands per rank (pJ) (Joule)
system.mem_ctrl.dram.rank1.refreshEnergy 59620080.000000                       # Energy for refresh commands per rank (pJ) (Joule)
system.mem_ctrl.dram.rank1.actBackEnergy    239816100                       # Energy for active background per rank (pJ) (Joule)
system.mem_ctrl.dram.rank1.preBackEnergy     89558400                       # Energy for precharge background per rank (pJ) (Joule)
system.mem_ctrl.dram.rank1.actPowerDownEnergy            0                       # Energy for active power-down per rank (pJ) (Joule)
system.mem_ctrl.dram.rank1.prePowerDownEnergy            0                       # Energy for precharge power-down per rank (pJ) (Joule)
system.mem_ctrl.dram.rank1.selfRefreshEnergy            0                       # Energy for self refresh per rank (pJ) (Joule)
system.mem_ctrl.dram.rank1.totalEnergy      454829700                       # Total energy per rank (pJ) (Joule)
system.mem_ctrl.dram.rank1.averagePower    599.140471                       # Core power per rank (mW) (Watt)
system.mem_ctrl.dram.rank1.totalIdleTime            0                       # Total Idle time Per DRAM Rank (Tick)
system.mem_ctrl.dram.rank1.pwrStateTime::IDLE    228589500                       # Time in different power states (Tick)
system.mem_ctrl.dram.rank1.pwrStateTime::REF     25220000                       # Time in different power states (Tick)
system.mem_ctrl.dram.rank1.pwrStateTime::SREF            0                       # Time in different power states (Tick)
system.mem_ctrl.dram.rank1.pwrStateTime::PRE_PDN            0                       # Time in different power states (Tick)
system.mem_ctrl.dram.rank1.pwrStateTime::ACT    505327500                       # Time in different power states (Tick)
system.mem_ctrl.dram.rank1.pwrStateTime::ACT_PDN            0                       # Time in different power states (Tick)
system.mem_ctrl.power_state.pwrStateResidencyTicks::UNDEFINED    759137000                       # Cumulative time (in ticks) in various power states (Tick)
system.workload.inst.arm                            0                       # number of arm instructions executed (Count)
system.workload.inst.quiesce                        0                       # number of quiesce instructions executed (Count)

---------- End Simulation Statistics   ----------
