
---------- Begin Simulation Statistics ----------
simSeconds                                   0.024825                       # Number of seconds simulated (Second)
simTicks                                  24824820000                       # Number of ticks simulated (Tick)
finalTick                                 54963641000                       # Number of ticks from beginning of simulation (restored from checkpoints and never reset) (Tick)
simFreq                                  1000000000000                       # The number of ticks per simulated second ((Tick/Second))
hostSeconds                                     36.30                       # Real time elapsed on the host (Second)
hostTickRate                                683874860                       # The number of ticks simulated per host second (ticks/s) ((Tick/Second))
hostMemory                                    9646240                       # Number of bytes of host memory used (Byte)
simInsts                                      6451886                       # Number of instructions simulated (Count)
simOps                                       12338249                       # Number of ops (including micro ops) simulated (Count)
hostInstRate                                   177736                       # Simulator instruction rate (inst/s) ((Count/Second))
hostOpRate                                     339893                       # Simulator op (including micro ops) rate (op/s) ((Count/Second))
system.caches.delayHistogram::bucket_size            4                       # delay histogram for all message (Unspecified)
system.caches.delayHistogram::max_bucket           39                       # delay histogram for all message (Unspecified)
system.caches.delayHistogram::samples         4077550                       # delay histogram for all message (Unspecified)
system.caches.delayHistogram::mean           0.576490                       # delay histogram for all message (Unspecified)
system.caches.delayHistogram::stdev          1.834941                       # delay histogram for all message (Unspecified)
system.caches.delayHistogram             |     3698596     90.71%     90.71% |      369104      9.05%     99.76% |        5852      0.14%     99.90% |         153      0.00%     99.91% |        2166      0.05%     99.96% |         323      0.01%     99.97% |        1210      0.03%    100.00% |          92      0.00%    100.00% |          54      0.00%    100.00% |           0      0.00%    100.00% # delay histogram for all message (Unspecified)
system.caches.delayHistogram::total           4077550                       # delay histogram for all message (Unspecified)
system.caches.m_outstandReqHistSeqr::bucket_size            1                       (Unspecified)
system.caches.m_outstandReqHistSeqr::max_bucket            9                       (Unspecified)
system.caches.m_outstandReqHistSeqr::samples      1048604                       (Unspecified)
system.caches.m_outstandReqHistSeqr::mean     1.000091                       (Unspecified)
system.caches.m_outstandReqHistSeqr::gmean     1.000046                       (Unspecified)
system.caches.m_outstandReqHistSeqr::stdev     0.016370                       (Unspecified)
system.caches.m_outstandReqHistSeqr      |           0      0.00%      0.00% |     1048556    100.00%    100.00% |          24      0.00%    100.00% |          14      0.00%    100.00% |           3      0.00%    100.00% |           4      0.00%    100.00% |           1      0.00%    100.00% |           1      0.00%    100.00% |           1      0.00%    100.00% |           0      0.00%    100.00% (Unspecified)
system.caches.m_outstandReqHistSeqr::total      1048604                       (Unspecified)
system.caches.m_latencyHistSeqr::bucket_size           32                       (Unspecified)
system.caches.m_latencyHistSeqr::max_bucket          319                       (Unspecified)
system.caches.m_latencyHistSeqr::samples      1048605                       (Unspecified)
system.caches.m_latencyHistSeqr::mean       21.676315                       (Unspecified)
system.caches.m_latencyHistSeqr::gmean      12.824080                       (Unspecified)
system.caches.m_latencyHistSeqr::stdev      11.458209                       (Unspecified)
system.caches.m_latencyHistSeqr          |     1048525     99.99%     99.99% |          45      0.00%    100.00% |          18      0.00%    100.00% |           8      0.00%    100.00% |           5      0.00%    100.00% |           1      0.00%    100.00% |           0      0.00%    100.00% |           0      0.00%    100.00% |           0      0.00%    100.00% |           3      0.00%    100.00% (Unspecified)
system.caches.m_latencyHistSeqr::total        1048605                       (Unspecified)
system.caches.m_hitLatencyHistSeqr::bucket_size            8                       (Unspecified)
system.caches.m_hitLatencyHistSeqr::max_bucket           79                       (Unspecified)
system.caches.m_hitLatencyHistSeqr::samples       245759                       (Unspecified)
system.caches.m_hitLatencyHistSeqr::mean     1.000374                       (Unspecified)
system.caches.m_hitLatencyHistSeqr::gmean     1.000030                       (Unspecified)
system.caches.m_hitLatencyHistSeqr::stdev     0.149353                       (Unspecified)
system.caches.m_hitLatencyHistSeqr       |      245757    100.00%    100.00% |           0      0.00%    100.00% |           1      0.00%    100.00% |           0      0.00%    100.00% |           0      0.00%    100.00% |           0      0.00%    100.00% |           0      0.00%    100.00% |           0      0.00%    100.00% |           0      0.00%    100.00% |           1      0.00%    100.00% (Unspecified)
system.caches.m_hitLatencyHistSeqr::total       245759                       (Unspecified)
system.caches.m_missLatencyHistSeqr::bucket_size           32                       (Unspecified)
system.caches.m_missLatencyHistSeqr::max_bucket          319                       (Unspecified)
system.caches.m_missLatencyHistSeqr::samples       802846                       (Unspecified)
system.caches.m_missLatencyHistSeqr::mean    28.005422                       (Unspecified)
system.caches.m_missLatencyHistSeqr::gmean    28.002698                       (Unspecified)
system.caches.m_missLatencyHistSeqr::stdev     0.745007                       (Unspecified)
system.caches.m_missLatencyHistSeqr      |      802767     99.99%     99.99% |          45      0.01%    100.00% |          17      0.00%    100.00% |           8      0.00%    100.00% |           5      0.00%    100.00% |           1      0.00%    100.00% |           0      0.00%    100.00% |           0      0.00%    100.00% |           0      0.00%    100.00% |           3      0.00%    100.00% (Unspecified)
system.caches.m_missLatencyHistSeqr::total       802846                       (Unspecified)
system.caches.delayVCHist.vnet_1::bucket_size            2                       # delay histogram for vnet_1 (Unspecified)
system.caches.delayVCHist.vnet_1::max_bucket           19                       # delay histogram for vnet_1 (Unspecified)
system.caches.delayVCHist.vnet_1::samples      2038791                       # delay histogram for vnet_1 (Unspecified)
system.caches.delayVCHist.vnet_1::mean       0.045421                       # delay histogram for vnet_1 (Unspecified)
system.caches.delayVCHist.vnet_1::stdev      0.498987                       # delay histogram for vnet_1 (Unspecified)
system.caches.delayVCHist.vnet_1         |     2015812     98.87%     98.87% |       12320      0.60%     99.48% |        2763      0.14%     99.61% |        3170      0.16%     99.77% |        4706      0.23%    100.00% |           8      0.00%    100.00% |           2      0.00%    100.00% |          10      0.00%    100.00% |           0      0.00%    100.00% |           0      0.00%    100.00% # delay histogram for vnet_1 (Unspecified)
system.caches.delayVCHist.vnet_1::total       2038791                       # delay histogram for vnet_1 (Unspecified)
system.caches.delayVCHist.vnet_2::bucket_size            4                       # delay histogram for vnet_2 (Unspecified)
system.caches.delayVCHist.vnet_2::max_bucket           39                       # delay histogram for vnet_2 (Unspecified)
system.caches.delayVCHist.vnet_2::samples      2038759                       # delay histogram for vnet_2 (Unspecified)
system.caches.delayVCHist.vnet_2::mean       1.107567                       # delay histogram for vnet_2 (Unspecified)
system.caches.delayVCHist.vnet_2::stdev      2.433310                       # delay histogram for vnet_2 (Unspecified)
system.caches.delayVCHist.vnet_2         |     1670464     81.94%     81.94% |      363171     17.81%     99.75% |        1138      0.06%     99.80% |         141      0.01%     99.81% |        2166      0.11%     99.92% |         323      0.02%     99.93% |        1210      0.06%     99.99% |          92      0.00%    100.00% |          54      0.00%    100.00% |           0      0.00%    100.00% # delay histogram for vnet_2 (Unspecified)
system.caches.delayVCHist.vnet_2::total       2038759                       # delay histogram for vnet_2 (Unspecified)
system.caches.L1Cache_Controller.Load         1835924      0.00%      0.00% (Unspecified)
system.caches.L1Cache_Controller.Ifetch        661294      0.00%      0.00% (Unspecified)
system.caches.L1Cache_Controller.Store         210209      0.00%      0.00% (Unspecified)
system.caches.L1Cache_Controller.Data         2038791      0.00%      0.00% (Unspecified)
system.caches.L1Cache_Controller.Replacement      2038759      0.00%      0.00% (Unspecified)
system.caches.L1Cache_Controller.Writeback_Ack      2038759      0.00%      0.00% (Unspecified)
system.caches.L1Cache_Controller.I.Load       1406453      0.00%      0.00% (Unspecified)
system.caches.L1Cache_Controller.I.Ifetch       525530      0.00%      0.00% (Unspecified)
system.caches.L1Cache_Controller.I.Store       106808      0.00%      0.00% (Unspecified)
system.caches.L1Cache_Controller.M.Load        429471      0.00%      0.00% (Unspecified)
system.caches.L1Cache_Controller.M.Ifetch       135764      0.00%      0.00% (Unspecified)
system.caches.L1Cache_Controller.M.Store       103401      0.00%      0.00% (Unspecified)
system.caches.L1Cache_Controller.M.Replacement      2038759      0.00%      0.00% (Unspecified)
system.caches.L1Cache_Controller.MI.Writeback_Ack      2038759      0.00%      0.00% (Unspecified)
system.caches.L1Cache_Controller.IS.Data      1931983      0.00%      0.00% (Unspecified)
system.caches.L1Cache_Controller.IM.Data       106808      0.00%      0.00% (Unspecified)
system.caches.Directory_Controller.GETX       2038791      0.00%      0.00% (Unspecified)
system.caches.Directory_Controller.PUTX       2038759      0.00%      0.00% (Unspecified)
system.caches.Directory_Controller.Memory_Data      2038791      0.00%      0.00% (Unspecified)
system.caches.Directory_Controller.Memory_Ack      2038759      0.00%      0.00% (Unspecified)
system.caches.Directory_Controller.I.GETX      2038791      0.00%      0.00% (Unspecified)
system.caches.Directory_Controller.M.PUTX      2038759      0.00%      0.00% (Unspecified)
system.caches.Directory_Controller.IM.Memory_Data      2038791      0.00%      0.00% (Unspecified)
system.caches.Directory_Controller.MI.Memory_Ack      2038759      0.00%      0.00% (Unspecified)
system.caches.MachineType.Directory.miss_mach_latency_hist_seqr::bucket_size           32                       (Unspecified)
system.caches.MachineType.Directory.miss_mach_latency_hist_seqr::max_bucket          319                       (Unspecified)
system.caches.MachineType.Directory.miss_mach_latency_hist_seqr::samples       802846                       (Unspecified)
system.caches.MachineType.Directory.miss_mach_latency_hist_seqr::mean    28.005422                       (Unspecified)
system.caches.MachineType.Directory.miss_mach_latency_hist_seqr::gmean    28.002698                       (Unspecified)
system.caches.MachineType.Directory.miss_mach_latency_hist_seqr::stdev     0.745007                       (Unspecified)
system.caches.MachineType.Directory.miss_mach_latency_hist_seqr |      802767     99.99%     99.99% |          45      0.01%    100.00% |          17      0.00%    100.00% |           8      0.00%    100.00% |           5      0.00%    100.00% |           1      0.00%    100.00% |           0      0.00%    100.00% |           0      0.00%    100.00% |           0      0.00%    100.00% |           3      0.00%    100.00% (Unspecified)
system.caches.MachineType.Directory.miss_mach_latency_hist_seqr::total       802846                       (Unspecified)
system.caches.MachineType.Directory.incomplete_times_seqr      2038790                       (Unspecified)
system.caches.RequestType.LD.latency_hist_seqr::bucket_size           32                       (Unspecified)
system.caches.RequestType.LD.latency_hist_seqr::max_bucket          319                       (Unspecified)
system.caches.RequestType.LD.latency_hist_seqr::samples      1048582                       (Unspecified)
system.caches.RequestType.LD.latency_hist_seqr::mean    21.675052                       (Unspecified)
system.caches.RequestType.LD.latency_hist_seqr::gmean    12.823667                       (Unspecified)
system.caches.RequestType.LD.latency_hist_seqr::stdev    11.451470                       (Unspecified)
system.caches.RequestType.LD.latency_hist_seqr |     1048519     99.99%     99.99% |          39      0.00%    100.00% |          13      0.00%    100.00% |           5      0.00%    100.00% |           4      0.00%    100.00% |           0      0.00%    100.00% |           0      0.00%    100.00% |           0      0.00%    100.00% |           0      0.00%    100.00% |           2      0.00%    100.00% (Unspecified)
system.caches.RequestType.LD.latency_hist_seqr::total      1048582                       (Unspecified)
system.caches.RequestType.LD.hit_latency_hist_seqr::bucket_size            1                       (Unspecified)
system.caches.RequestType.LD.hit_latency_hist_seqr::max_bucket            9                       (Unspecified)
system.caches.RequestType.LD.hit_latency_hist_seqr::samples       245756                       (Unspecified)
system.caches.RequestType.LD.hit_latency_hist_seqr::mean            1                       (Unspecified)
system.caches.RequestType.LD.hit_latency_hist_seqr::gmean            1                       (Unspecified)
system.caches.RequestType.LD.hit_latency_hist_seqr |           0      0.00%      0.00% |      245756    100.00%    100.00% |           0      0.00%    100.00% |           0      0.00%    100.00% |           0      0.00%    100.00% |           0      0.00%    100.00% |           0      0.00%    100.00% |           0      0.00%    100.00% |           0      0.00%    100.00% |           0      0.00%    100.00% (Unspecified)
system.caches.RequestType.LD.hit_latency_hist_seqr::total       245756                       (Unspecified)
system.caches.RequestType.LD.miss_latency_hist_seqr::bucket_size           32                       (Unspecified)
system.caches.RequestType.LD.miss_latency_hist_seqr::max_bucket          319                       (Unspecified)
system.caches.RequestType.LD.miss_latency_hist_seqr::samples       802826                       (Unspecified)
system.caches.RequestType.LD.miss_latency_hist_seqr::mean    28.003967                       (Unspecified)
system.caches.RequestType.LD.miss_latency_hist_seqr::gmean    28.002054                       (Unspecified)
system.caches.RequestType.LD.miss_latency_hist_seqr::stdev     0.610520                       (Unspecified)
system.caches.RequestType.LD.miss_latency_hist_seqr |      802763     99.99%     99.99% |          39      0.00%    100.00% |          13      0.00%    100.00% |           5      0.00%    100.00% |           4      0.00%    100.00% |           0      0.00%    100.00% |           0      0.00%    100.00% |           0      0.00%    100.00% |           0      0.00%    100.00% |           2      0.00%    100.00% (Unspecified)
system.caches.RequestType.LD.miss_latency_hist_seqr::total       802826                       (Unspecified)
system.caches.RequestType.ST.latency_hist_seqr::bucket_size            4                       (Unspecified)
system.caches.RequestType.ST.latency_hist_seqr::max_bucket           39                       (Unspecified)
system.caches.RequestType.ST.latency_hist_seqr::samples            1                       (Unspecified)
system.caches.RequestType.ST.latency_hist_seqr::mean           28                       (Unspecified)
system.caches.RequestType.ST.latency_hist_seqr::gmean    28.000000                       (Unspecified)
system.caches.RequestType.ST.latency_hist_seqr::stdev          nan                       (Unspecified)
system.caches.RequestType.ST.latency_hist_seqr |           0      0.00%      0.00% |           0      0.00%      0.00% |           0      0.00%      0.00% |           0      0.00%      0.00% |           0      0.00%      0.00% |           0      0.00%      0.00% |           0      0.00%      0.00% |           1    100.00%    100.00% |           0      0.00%    100.00% |           0      0.00%    100.00% (Unspecified)
system.caches.RequestType.ST.latency_hist_seqr::total            1                       (Unspecified)
system.caches.RequestType.ST.miss_latency_hist_seqr::bucket_size            4                       (Unspecified)
system.caches.RequestType.ST.miss_latency_hist_seqr::max_bucket           39                       (Unspecified)
system.caches.RequestType.ST.miss_latency_hist_seqr::samples            1                       (Unspecified)
system.caches.RequestType.ST.miss_latency_hist_seqr::mean           28                       (Unspecified)
system.caches.RequestType.ST.miss_latency_hist_seqr::gmean    28.000000                       (Unspecified)
system.caches.RequestType.ST.miss_latency_hist_seqr::stdev          nan                       (Unspecified)
system.caches.RequestType.ST.miss_latency_hist_seqr |           0      0.00%      0.00% |           0      0.00%      0.00% |           0      0.00%      0.00% |           0      0.00%      0.00% |           0      0.00%      0.00% |           0      0.00%      0.00% |           0      0.00%      0.00% |           1    100.00%    100.00% |           0      0.00%    100.00% |           0      0.00%    100.00% (Unspecified)
system.caches.RequestType.ST.miss_latency_hist_seqr::total            1                       (Unspecified)
system.caches.RequestType.IFETCH.latency_hist_seqr::bucket_size           32                       (Unspecified)
system.caches.RequestType.IFETCH.latency_hist_seqr::max_bucket          319                       (Unspecified)
system.caches.RequestType.IFETCH.latency_hist_seqr::samples           22                       (Unspecified)
system.caches.RequestType.IFETCH.latency_hist_seqr::mean    81.590909                       (Unspecified)
system.caches.RequestType.IFETCH.latency_hist_seqr::gmean    57.534504                       (Unspecified)
system.caches.RequestType.IFETCH.latency_hist_seqr::stdev    63.955088                       (Unspecified)
system.caches.RequestType.IFETCH.latency_hist_seqr |           5     22.73%     22.73% |           6     27.27%     50.00% |           5     22.73%     72.73% |           3     13.64%     86.36% |           1      4.55%     90.91% |           1      4.55%     95.45% |           0      0.00%     95.45% |           0      0.00%     95.45% |           0      0.00%     95.45% |           1      4.55%    100.00% (Unspecified)
system.caches.RequestType.IFETCH.latency_hist_seqr::total           22                       (Unspecified)
system.caches.RequestType.IFETCH.hit_latency_hist_seqr::bucket_size            8                       (Unspecified)
system.caches.RequestType.IFETCH.hit_latency_hist_seqr::max_bucket           79                       (Unspecified)
system.caches.RequestType.IFETCH.hit_latency_hist_seqr::samples            3                       (Unspecified)
system.caches.RequestType.IFETCH.hit_latency_hist_seqr::mean    31.666667                       (Unspecified)
system.caches.RequestType.IFETCH.hit_latency_hist_seqr::gmean    11.656953                       (Unspecified)
system.caches.RequestType.IFETCH.hit_latency_hist_seqr::stdev    36.473735                       (Unspecified)
system.caches.RequestType.IFETCH.hit_latency_hist_seqr |           1     33.33%     33.33% |           0      0.00%     33.33% |           1     33.33%     66.67% |           0      0.00%     66.67% |           0      0.00%     66.67% |           0      0.00%     66.67% |           0      0.00%     66.67% |           0      0.00%     66.67% |           0      0.00%     66.67% |           1     33.33%    100.00% (Unspecified)
system.caches.RequestType.IFETCH.hit_latency_hist_seqr::total            3                       (Unspecified)
system.caches.RequestType.IFETCH.miss_latency_hist_seqr::bucket_size           32                       (Unspecified)
system.caches.RequestType.IFETCH.miss_latency_hist_seqr::max_bucket          319                       (Unspecified)
system.caches.RequestType.IFETCH.miss_latency_hist_seqr::samples           19                       (Unspecified)
system.caches.RequestType.IFETCH.miss_latency_hist_seqr::mean    89.473684                       (Unspecified)
system.caches.RequestType.IFETCH.miss_latency_hist_seqr::gmean    74.029299                       (Unspecified)
system.caches.RequestType.IFETCH.miss_latency_hist_seqr::stdev    64.367321                       (Unspecified)
system.caches.RequestType.IFETCH.miss_latency_hist_seqr |           3     15.79%     15.79% |           6     31.58%     47.37% |           4     21.05%     68.42% |           3     15.79%     84.21% |           1      5.26%     89.47% |           1      5.26%     94.74% |           0      0.00%     94.74% |           0      0.00%     94.74% |           0      0.00%     94.74% |           1      5.26%    100.00% (Unspecified)
system.caches.RequestType.IFETCH.miss_latency_hist_seqr::total           19                       (Unspecified)
system.caches.RequestTypeMachineType.LD.Directory.miss_type_mach_latency_hist_seqr::bucket_size           32                       (Unspecified)
system.caches.RequestTypeMachineType.LD.Directory.miss_type_mach_latency_hist_seqr::max_bucket          319                       (Unspecified)
system.caches.RequestTypeMachineType.LD.Directory.miss_type_mach_latency_hist_seqr::samples       802826                       (Unspecified)
system.caches.RequestTypeMachineType.LD.Directory.miss_type_mach_latency_hist_seqr::mean    28.003967                       (Unspecified)
system.caches.RequestTypeMachineType.LD.Directory.miss_type_mach_latency_hist_seqr::gmean    28.002054                       (Unspecified)
system.caches.RequestTypeMachineType.LD.Directory.miss_type_mach_latency_hist_seqr::stdev     0.610520                       (Unspecified)
system.caches.RequestTypeMachineType.LD.Directory.miss_type_mach_latency_hist_seqr |      802763     99.99%     99.99% |          39      0.00%    100.00% |          13      0.00%    100.00% |           5      0.00%    100.00% |           4      0.00%    100.00% |           0      0.00%    100.00% |           0      0.00%    100.00% |           0      0.00%    100.00% |           0      0.00%    100.00% |           2      0.00%    100.00% (Unspecified)
system.caches.RequestTypeMachineType.LD.Directory.miss_type_mach_latency_hist_seqr::total       802826                       (Unspecified)
system.caches.RequestTypeMachineType.ST.Directory.miss_type_mach_latency_hist_seqr::bucket_size            4                       (Unspecified)
system.caches.RequestTypeMachineType.ST.Directory.miss_type_mach_latency_hist_seqr::max_bucket           39                       (Unspecified)
system.caches.RequestTypeMachineType.ST.Directory.miss_type_mach_latency_hist_seqr::samples            1                       (Unspecified)
system.caches.RequestTypeMachineType.ST.Directory.miss_type_mach_latency_hist_seqr::mean           28                       (Unspecified)
system.caches.RequestTypeMachineType.ST.Directory.miss_type_mach_latency_hist_seqr::gmean    28.000000                       (Unspecified)
system.caches.RequestTypeMachineType.ST.Directory.miss_type_mach_latency_hist_seqr::stdev          nan                       (Unspecified)
system.caches.RequestTypeMachineType.ST.Directory.miss_type_mach_latency_hist_seqr |           0      0.00%      0.00% |           0      0.00%      0.00% |           0      0.00%      0.00% |           0      0.00%      0.00% |           0      0.00%      0.00% |           0      0.00%      0.00% |           0      0.00%      0.00% |           1    100.00%    100.00% |           0      0.00%    100.00% |           0      0.00%    100.00% (Unspecified)
system.caches.RequestTypeMachineType.ST.Directory.miss_type_mach_latency_hist_seqr::total            1                       (Unspecified)
system.caches.RequestTypeMachineType.IFETCH.Directory.miss_type_mach_latency_hist_seqr::bucket_size           32                       (Unspecified)
system.caches.RequestTypeMachineType.IFETCH.Directory.miss_type_mach_latency_hist_seqr::max_bucket          319                       (Unspecified)
system.caches.RequestTypeMachineType.IFETCH.Directory.miss_type_mach_latency_hist_seqr::samples           19                       (Unspecified)
system.caches.RequestTypeMachineType.IFETCH.Directory.miss_type_mach_latency_hist_seqr::mean    89.473684                       (Unspecified)
system.caches.RequestTypeMachineType.IFETCH.Directory.miss_type_mach_latency_hist_seqr::gmean    74.029299                       (Unspecified)
system.caches.RequestTypeMachineType.IFETCH.Directory.miss_type_mach_latency_hist_seqr::stdev    64.367321                       (Unspecified)
system.caches.RequestTypeMachineType.IFETCH.Directory.miss_type_mach_latency_hist_seqr |           3     15.79%     15.79% |           6     31.58%     47.37% |           4     21.05%     68.42% |           3     15.79%     84.21% |           1      5.26%     89.47% |           1      5.26%     94.74% |           0      0.00%     94.74% |           0      0.00%     94.74% |           0      0.00%     94.74% |           1      5.26%    100.00% (Unspecified)
system.caches.RequestTypeMachineType.IFETCH.Directory.miss_type_mach_latency_hist_seqr::total           19                       (Unspecified)
system.caches.controllers0.delayHistogram::samples      4077550                       # delay_histogram (Unspecified)
system.caches.controllers0.delayHistogram::mean     0.576490                       # delay_histogram (Unspecified)
system.caches.controllers0.delayHistogram::stdev     1.834941                       # delay_histogram (Unspecified)
system.caches.controllers0.delayHistogram::0-3      3698596     90.71%     90.71% # delay_histogram (Unspecified)
system.caches.controllers0.delayHistogram::4-7       369104      9.05%     99.76% # delay_histogram (Unspecified)
system.caches.controllers0.delayHistogram::8-11         5852      0.14%     99.90% # delay_histogram (Unspecified)
system.caches.controllers0.delayHistogram::12-15          153      0.00%     99.91% # delay_histogram (Unspecified)
system.caches.controllers0.delayHistogram::16-19         2166      0.05%     99.96% # delay_histogram (Unspecified)
system.caches.controllers0.delayHistogram::20-23          323      0.01%     99.97% # delay_histogram (Unspecified)
system.caches.controllers0.delayHistogram::24-27         1210      0.03%    100.00% # delay_histogram (Unspecified)
system.caches.controllers0.delayHistogram::28-31           92      0.00%    100.00% # delay_histogram (Unspecified)
system.caches.controllers0.delayHistogram::32-35           54      0.00%    100.00% # delay_histogram (Unspecified)
system.caches.controllers0.delayHistogram::total      4077550                       # delay_histogram (Unspecified)
system.caches.controllers0.cacheMemory.m_demand_hits       668636                       # Number of cache demand hits (Unspecified)
system.caches.controllers0.cacheMemory.m_demand_misses      2038791                       # Number of cache demand misses (Unspecified)
system.caches.controllers0.cacheMemory.m_demand_accesses      2707427                       # Number of cache demand accesses (Unspecified)
system.caches.controllers0.forwardToCache.m_buf_msgs     0.037093                       # Average number of messages in buffer (Unspecified)
system.caches.controllers0.forwardToCache.m_stall_time  5449.412312                       # Average number of cycles messages are stalled in this MB (Unspecified)
system.caches.controllers0.mandatoryQueue.m_buf_msgs     0.647874                       # Average number of messages in buffer (Unspecified)
system.caches.controllers0.mandatoryQueue.m_stall_time 11755.747950                       # Average number of cycles messages are stalled in this MB (Unspecified)
system.caches.controllers0.power_state.pwrStateResidencyTicks::UNDEFINED  54963641000                       # Cumulative time (in ticks) in various power states (Tick)
system.caches.controllers0.requestFromCache.m_buf_msgs     0.148373                       # Average number of messages in buffer (Unspecified)
system.caches.controllers0.requestFromCache.m_stall_time  1999.999891                       # Average number of cycles messages are stalled in this MB (Unspecified)
system.caches.controllers0.responseToCache.m_buf_msgs     0.037093                       # Average number of messages in buffer (Unspecified)
system.caches.controllers0.responseToCache.m_stall_time  5026.742879                       # Average number of cycles messages are stalled in this MB (Unspecified)
system.caches.controllers1.forwardFromDir.m_buf_msgs     0.037093                       # Average number of messages in buffer (Unspecified)
system.caches.controllers1.forwardFromDir.m_stall_time   999.983989                       # Average number of cycles messages are stalled in this MB (Unspecified)
system.caches.controllers1.power_state.pwrStateResidencyTicks::UNDEFINED  54963641000                       # Cumulative time (in ticks) in various power states (Tick)
system.caches.controllers1.requestToDir.m_buf_msgs     0.074186                       # Average number of messages in buffer (Unspecified)
system.caches.controllers1.requestToDir.m_stall_time 10461.615107                       # Average number of cycles messages are stalled in this MB (Unspecified)
system.caches.controllers1.requestToMemory.m_buf_msgs     0.074187                       # Average number of messages in buffer (Unspecified)
system.caches.controllers1.requestToMemory.m_stall_time  1000.000964                       # Average number of cycles messages are stalled in this MB (Unspecified)
system.caches.controllers1.responseFromDir.m_buf_msgs     0.037093                       # Average number of messages in buffer (Unspecified)
system.caches.controllers1.responseFromDir.m_stall_time   999.998745                       # Average number of cycles messages are stalled in this MB (Unspecified)
system.caches.controllers1.responseFromMemory.m_buf_msgs     0.076233                       # Average number of messages in buffer (Unspecified)
system.caches.controllers1.responseFromMemory.m_stall_time   999.998763                       # Average number of cycles messages are stalled in this MB (Unspecified)
system.caches.network.msg_count.Control       4077582                       (Unspecified)
system.caches.network.msg_byte.Control       32620656                       (Unspecified)
system.caches.network.msg_count.Data          4077518                       (Unspecified)
system.caches.network.msg_byte.Data         293581296                       (Unspecified)
system.caches.network.msg_count.Response_Data      4077582                       (Unspecified)
system.caches.network.msg_byte.Response_Data    293585904                       (Unspecified)
system.caches.network.msg_count.Writeback_Control      4077518                       (Unspecified)
system.caches.network.msg_byte.Writeback_Control     32620144                       (Unspecified)
system.caches.network.int_link_buffers2.m_buf_msgs     0.064681                       # Average number of messages in buffer (Unspecified)
system.caches.network.int_link_buffers2.m_stall_time  7482.595201                       # Average number of cycles messages are stalled in this MB (Unspecified)
system.caches.network.int_link_buffers8.m_buf_msgs     0.032340                       # Average number of messages in buffer (Unspecified)
system.caches.network.int_link_buffers8.m_stall_time  3000.043384                       # Average number of cycles messages are stalled in this MB (Unspecified)
system.caches.network.int_link_buffers9.m_buf_msgs     0.032340                       # Average number of messages in buffer (Unspecified)
system.caches.network.int_link_buffers9.m_stall_time         3000                       # Average number of cycles messages are stalled in this MB (Unspecified)
system.caches.network.power_state.pwrStateResidencyTicks::UNDEFINED  54963641000                       # Cumulative time (in ticks) in various power states (Tick)
system.caches.network.routers0.percent_links_utilized    16.170224                       (Unspecified)
system.caches.network.routers0.msg_count.Control::2      2038791                       (Unspecified)
system.caches.network.routers0.msg_bytes.Control::2     16310328                       (Unspecified)
system.caches.network.routers0.msg_count.Data::2      2038759                       (Unspecified)
system.caches.network.routers0.msg_bytes.Data::2    146790648                       (Unspecified)
system.caches.network.routers0.msg_count.Response_Data::4      2038791                       (Unspecified)
system.caches.network.routers0.msg_bytes.Response_Data::4    146792952                       (Unspecified)
system.caches.network.routers0.msg_count.Writeback_Control::3      2038759                       (Unspecified)
system.caches.network.routers0.msg_bytes.Writeback_Control::3     16310072                       (Unspecified)
system.caches.network.routers0.port_buffers3.m_buf_msgs     0.037093                       # Average number of messages in buffer (Unspecified)
system.caches.network.routers0.port_buffers3.m_stall_time  4449.428469                       # Average number of cycles messages are stalled in this MB (Unspecified)
system.caches.network.routers0.port_buffers4.m_buf_msgs     0.037093                       # Average number of messages in buffer (Unspecified)
system.caches.network.routers0.port_buffers4.m_stall_time  4026.744280                       # Average number of cycles messages are stalled in this MB (Unspecified)
system.caches.network.routers0.port_buffers7.m_buf_msgs     0.292277                       # Average number of messages in buffer (Unspecified)
system.caches.network.routers0.port_buffers7.m_stall_time  7461.615871                       # Average number of cycles messages are stalled in this MB (Unspecified)
system.caches.network.routers0.power_state.pwrStateResidencyTicks::UNDEFINED  54963641000                       # Cumulative time (in ticks) in various power states (Tick)
system.caches.network.routers0.throttle00.link_utilization    16.170228                       (Unspecified)
system.caches.network.routers0.throttle00.msg_count.Response_Data::4      2038791                       (Unspecified)
system.caches.network.routers0.throttle00.msg_bytes.Response_Data::4    146792952                       (Unspecified)
system.caches.network.routers0.throttle00.msg_count.Writeback_Control::3      2038759                       (Unspecified)
system.caches.network.routers0.throttle00.msg_bytes.Writeback_Control::3     16310072                       (Unspecified)
system.caches.network.routers0.throttle01.link_utilization    16.170220                       (Unspecified)
system.caches.network.routers0.throttle01.msg_count.Control::2      2038791                       (Unspecified)
system.caches.network.routers0.throttle01.msg_bytes.Control::2     16310328                       (Unspecified)
system.caches.network.routers0.throttle01.msg_count.Data::2      2038759                       (Unspecified)
system.caches.network.routers0.throttle01.msg_bytes.Data::2    146790648                       (Unspecified)
system.caches.network.routers1.percent_links_utilized    16.170228                       (Unspecified)
system.caches.network.routers1.msg_count.Control::2      2038791                       (Unspecified)
system.caches.network.routers1.msg_bytes.Control::2     16310328                       (Unspecified)
system.caches.network.routers1.msg_count.Data::2      2038759                       (Unspecified)
system.caches.network.routers1.msg_bytes.Data::2    146790648                       (Unspecified)
system.caches.network.routers1.msg_count.Response_Data::4      2038791                       (Unspecified)
system.caches.network.routers1.msg_bytes.Response_Data::4    146792952                       (Unspecified)
system.caches.network.routers1.msg_count.Writeback_Control::3      2038759                       (Unspecified)
system.caches.network.routers1.msg_bytes.Writeback_Control::3     16310072                       (Unspecified)
system.caches.network.routers1.port_buffers2.m_buf_msgs     0.074186                       # Average number of messages in buffer (Unspecified)
system.caches.network.routers1.port_buffers2.m_stall_time  9461.615398                       # Average number of cycles messages are stalled in this MB (Unspecified)
system.caches.network.routers1.port_buffers6.m_buf_msgs     0.057634                       # Average number of messages in buffer (Unspecified)
system.caches.network.routers1.port_buffers6.m_stall_time  2449.460672                       # Average number of cycles messages are stalled in this MB (Unspecified)
system.caches.network.routers1.port_buffers7.m_buf_msgs     0.037936                       # Average number of messages in buffer (Unspecified)
system.caches.network.routers1.port_buffers7.m_stall_time  2026.746973                       # Average number of cycles messages are stalled in this MB (Unspecified)
system.caches.network.routers1.power_state.pwrStateResidencyTicks::UNDEFINED  54963641000                       # Cumulative time (in ticks) in various power states (Tick)
system.caches.network.routers1.throttle00.link_utilization    16.170228                       (Unspecified)
system.caches.network.routers1.throttle00.msg_count.Control::2      2038791                       (Unspecified)
system.caches.network.routers1.throttle00.msg_bytes.Control::2     16310328                       (Unspecified)
system.caches.network.routers1.throttle00.msg_count.Data::2      2038759                       (Unspecified)
system.caches.network.routers1.throttle00.msg_bytes.Data::2    146790648                       (Unspecified)
system.caches.network.routers1.throttle01.link_utilization    16.170228                       (Unspecified)
system.caches.network.routers1.throttle01.msg_count.Response_Data::4      2038791                       (Unspecified)
system.caches.network.routers1.throttle01.msg_bytes.Response_Data::4    146792952                       (Unspecified)
system.caches.network.routers1.throttle01.msg_count.Writeback_Control::3      2038759                       (Unspecified)
system.caches.network.routers1.throttle01.msg_bytes.Writeback_Control::3     16310072                       (Unspecified)
system.caches.power_state.pwrStateResidencyTicks::UNDEFINED  54963641000                       # Cumulative time (in ticks) in various power states (Tick)
system.caches.sequencers.power_state.pwrStateResidencyTicks::UNDEFINED  54963641000                       # Cumulative time (in ticks) in various power states (Tick)
system.caches.sys_port_proxy.power_state.pwrStateResidencyTicks::UNDEFINED  54963641000                       # Cumulative time (in ticks) in various power states (Tick)
system.clk_domain.clock                          1000                       # Clock period in ticks (Tick)
system.clk_domain.voltage_domain.voltage            1                       # Voltage in Volts (Volt)
system.cpu.numCycles                         24824820                       # Number of cpu cycles simulated (Cycle)
system.cpu.numWorkItemsStarted                      0                       # Number of work items this cpu started (Count)
system.cpu.numWorkItemsCompleted                    0                       # Number of work items this cpu completed (Count)
system.cpu.instsAdded                         8388825                       # Number of instructions added to the IQ (excludes non-spec) (Count)
system.cpu.nonSpecInstsAdded                        1                       # Number of non-speculative instructions added to the IQ (Count)
system.cpu.instsIssued                        8388812                       # Number of instructions issued (Count)
system.cpu.squashedInstsExamined                   59                       # Number of squashed instructions iterated over during squash; mainly for profiling (Count)
system.cpu.squashedOperandsExamined                10                       # Number of squashed operands that are examined and possibly removed from graph (Count)
system.cpu.numIssuedDist::samples            24823826                       # Number of insts issued each cycle (Count)
system.cpu.numIssuedDist::mean               0.337934                       # Number of insts issued each cycle (Count)
system.cpu.numIssuedDist::stdev              0.797537                       # Number of insts issued each cycle (Count)
system.cpu.numIssuedDist::underflows                0      0.00%      0.00% # Number of insts issued each cycle (Count)
system.cpu.numIssuedDist::0                  19542704     78.73%     78.73% # Number of insts issued each cycle (Count)
system.cpu.numIssuedDist::1                   3702750     14.92%     93.64% # Number of insts issued each cycle (Count)
system.cpu.numIssuedDist::2                    513371      2.07%     95.71% # Number of insts issued each cycle (Count)
system.cpu.numIssuedDist::3                    617133      2.49%     98.20% # Number of insts issued each cycle (Count)
system.cpu.numIssuedDist::4                    431448      1.74%     99.93% # Number of insts issued each cycle (Count)
system.cpu.numIssuedDist::5                     16393      0.07%    100.00% # Number of insts issued each cycle (Count)
system.cpu.numIssuedDist::6                        25      0.00%    100.00% # Number of insts issued each cycle (Count)
system.cpu.numIssuedDist::7                         2      0.00%    100.00% # Number of insts issued each cycle (Count)
system.cpu.numIssuedDist::8                         0      0.00%    100.00% # Number of insts issued each cycle (Count)
system.cpu.numIssuedDist::overflows                 0      0.00%    100.00% # Number of insts issued each cycle (Count)
system.cpu.numIssuedDist::min_value                 0                       # Number of insts issued each cycle (Count)
system.cpu.numIssuedDist::max_value                 7                       # Number of insts issued each cycle (Count)
system.cpu.numIssuedDist::total              24823826                       # Number of insts issued each cycle (Count)
system.cpu.statFuBusy::No_OpClass                   0      0.00%      0.00% # attempts to use FU when none available (Count)
system.cpu.statFuBusy::IntAlu                      19     95.00%     95.00% # attempts to use FU when none available (Count)
system.cpu.statFuBusy::IntMult                      0      0.00%     95.00% # attempts to use FU when none available (Count)
system.cpu.statFuBusy::IntDiv                       0      0.00%     95.00% # attempts to use FU when none available (Count)
system.cpu.statFuBusy::FloatAdd                     0      0.00%     95.00% # attempts to use FU when none available (Count)
system.cpu.statFuBusy::FloatCmp                     0      0.00%     95.00% # attempts to use FU when none available (Count)
system.cpu.statFuBusy::FloatCvt                     0      0.00%     95.00% # attempts to use FU when none available (Count)
system.cpu.statFuBusy::FloatMult                    0      0.00%     95.00% # attempts to use FU when none available (Count)
system.cpu.statFuBusy::FloatMultAcc                 0      0.00%     95.00% # attempts to use FU when none available (Count)
system.cpu.statFuBusy::FloatDiv                     0      0.00%     95.00% # attempts to use FU when none available (Count)
system.cpu.statFuBusy::FloatMisc                    0      0.00%     95.00% # attempts to use FU when none available (Count)
system.cpu.statFuBusy::FloatSqrt                    0      0.00%     95.00% # attempts to use FU when none available (Count)
system.cpu.statFuBusy::SimdAdd                      0      0.00%     95.00% # attempts to use FU when none available (Count)
system.cpu.statFuBusy::SimdAddAcc                   0      0.00%     95.00% # attempts to use FU when none available (Count)
system.cpu.statFuBusy::SimdAlu                      0      0.00%     95.00% # attempts to use FU when none available (Count)
system.cpu.statFuBusy::SimdCmp                      0      0.00%     95.00% # attempts to use FU when none available (Count)
system.cpu.statFuBusy::SimdCvt                      0      0.00%     95.00% # attempts to use FU when none available (Count)
system.cpu.statFuBusy::SimdMisc                     0      0.00%     95.00% # attempts to use FU when none available (Count)
system.cpu.statFuBusy::SimdMult                     0      0.00%     95.00% # attempts to use FU when none available (Count)
system.cpu.statFuBusy::SimdMultAcc                  0      0.00%     95.00% # attempts to use FU when none available (Count)
system.cpu.statFuBusy::SimdShift                    0      0.00%     95.00% # attempts to use FU when none available (Count)
system.cpu.statFuBusy::SimdShiftAcc                 0      0.00%     95.00% # attempts to use FU when none available (Count)
system.cpu.statFuBusy::SimdDiv                      0      0.00%     95.00% # attempts to use FU when none available (Count)
system.cpu.statFuBusy::SimdSqrt                     0      0.00%     95.00% # attempts to use FU when none available (Count)
system.cpu.statFuBusy::SimdFloatAdd                 0      0.00%     95.00% # attempts to use FU when none available (Count)
system.cpu.statFuBusy::SimdFloatAlu                 0      0.00%     95.00% # attempts to use FU when none available (Count)
system.cpu.statFuBusy::SimdFloatCmp                 0      0.00%     95.00% # attempts to use FU when none available (Count)
system.cpu.statFuBusy::SimdFloatCvt                 0      0.00%     95.00% # attempts to use FU when none available (Count)
system.cpu.statFuBusy::SimdFloatDiv                 0      0.00%     95.00% # attempts to use FU when none available (Count)
system.cpu.statFuBusy::SimdFloatMisc                0      0.00%     95.00% # attempts to use FU when none available (Count)
system.cpu.statFuBusy::SimdFloatMult                0      0.00%     95.00% # attempts to use FU when none available (Count)
system.cpu.statFuBusy::SimdFloatMultAcc             0      0.00%     95.00% # attempts to use FU when none available (Count)
system.cpu.statFuBusy::SimdFloatSqrt                0      0.00%     95.00% # attempts to use FU when none available (Count)
system.cpu.statFuBusy::SimdReduceAdd                0      0.00%     95.00% # attempts to use FU when none available (Count)
system.cpu.statFuBusy::SimdReduceAlu                0      0.00%     95.00% # attempts to use FU when none available (Count)
system.cpu.statFuBusy::SimdReduceCmp                0      0.00%     95.00% # attempts to use FU when none available (Count)
system.cpu.statFuBusy::SimdFloatReduceAdd            0      0.00%     95.00% # attempts to use FU when none available (Count)
system.cpu.statFuBusy::SimdFloatReduceCmp            0      0.00%     95.00% # attempts to use FU when none available (Count)
system.cpu.statFuBusy::SimdAes                      0      0.00%     95.00% # attempts to use FU when none available (Count)
system.cpu.statFuBusy::SimdAesMix                   0      0.00%     95.00% # attempts to use FU when none available (Count)
system.cpu.statFuBusy::SimdSha1Hash                 0      0.00%     95.00% # attempts to use FU when none available (Count)
system.cpu.statFuBusy::SimdSha1Hash2                0      0.00%     95.00% # attempts to use FU when none available (Count)
system.cpu.statFuBusy::SimdSha256Hash               0      0.00%     95.00% # attempts to use FU when none available (Count)
system.cpu.statFuBusy::SimdSha256Hash2              0      0.00%     95.00% # attempts to use FU when none available (Count)
system.cpu.statFuBusy::SimdShaSigma2                0      0.00%     95.00% # attempts to use FU when none available (Count)
system.cpu.statFuBusy::SimdShaSigma3                0      0.00%     95.00% # attempts to use FU when none available (Count)
system.cpu.statFuBusy::SimdPredAlu                  0      0.00%     95.00% # attempts to use FU when none available (Count)
system.cpu.statFuBusy::MemRead                      0      0.00%     95.00% # attempts to use FU when none available (Count)
system.cpu.statFuBusy::MemWrite                     1      5.00%    100.00% # attempts to use FU when none available (Count)
system.cpu.statFuBusy::FloatMemRead                 0      0.00%    100.00% # attempts to use FU when none available (Count)
system.cpu.statFuBusy::FloatMemWrite                0      0.00%    100.00% # attempts to use FU when none available (Count)
system.cpu.statFuBusy::IprAccess                    0      0.00%    100.00% # attempts to use FU when none available (Count)
system.cpu.statFuBusy::InstPrefetch                 0      0.00%    100.00% # attempts to use FU when none available (Count)
system.cpu.statIssuedInstType_0::No_OpClass           29      0.00%      0.00% # Number of instructions issued per FU type, per thread (Count)
system.cpu.statIssuedInstType_0::IntAlu       7340139     87.50%     87.50% # Number of instructions issued per FU type, per thread (Count)
system.cpu.statIssuedInstType_0::IntMult            0      0.00%     87.50% # Number of instructions issued per FU type, per thread (Count)
system.cpu.statIssuedInstType_0::IntDiv             0      0.00%     87.50% # Number of instructions issued per FU type, per thread (Count)
system.cpu.statIssuedInstType_0::FloatAdd            0      0.00%     87.50% # Number of instructions issued per FU type, per thread (Count)
system.cpu.statIssuedInstType_0::FloatCmp            0      0.00%     87.50% # Number of instructions issued per FU type, per thread (Count)
system.cpu.statIssuedInstType_0::FloatCvt           10      0.00%     87.50% # Number of instructions issued per FU type, per thread (Count)
system.cpu.statIssuedInstType_0::FloatMult            0      0.00%     87.50% # Number of instructions issued per FU type, per thread (Count)
system.cpu.statIssuedInstType_0::FloatMultAcc            0      0.00%     87.50% # Number of instructions issued per FU type, per thread (Count)
system.cpu.statIssuedInstType_0::FloatDiv            0      0.00%     87.50% # Number of instructions issued per FU type, per thread (Count)
system.cpu.statIssuedInstType_0::FloatMisc            0      0.00%     87.50% # Number of instructions issued per FU type, per thread (Count)
system.cpu.statIssuedInstType_0::FloatSqrt            0      0.00%     87.50% # Number of instructions issued per FU type, per thread (Count)
system.cpu.statIssuedInstType_0::SimdAdd            0      0.00%     87.50% # Number of instructions issued per FU type, per thread (Count)
system.cpu.statIssuedInstType_0::SimdAddAcc            0      0.00%     87.50% # Number of instructions issued per FU type, per thread (Count)
system.cpu.statIssuedInstType_0::SimdAlu            0      0.00%     87.50% # Number of instructions issued per FU type, per thread (Count)
system.cpu.statIssuedInstType_0::SimdCmp            0      0.00%     87.50% # Number of instructions issued per FU type, per thread (Count)
system.cpu.statIssuedInstType_0::SimdCvt            0      0.00%     87.50% # Number of instructions issued per FU type, per thread (Count)
system.cpu.statIssuedInstType_0::SimdMisc            0      0.00%     87.50% # Number of instructions issued per FU type, per thread (Count)
system.cpu.statIssuedInstType_0::SimdMult            0      0.00%     87.50% # Number of instructions issued per FU type, per thread (Count)
system.cpu.statIssuedInstType_0::SimdMultAcc            0      0.00%     87.50% # Number of instructions issued per FU type, per thread (Count)
system.cpu.statIssuedInstType_0::SimdShift            0      0.00%     87.50% # Number of instructions issued per FU type, per thread (Count)
system.cpu.statIssuedInstType_0::SimdShiftAcc            0      0.00%     87.50% # Number of instructions issued per FU type, per thread (Count)
system.cpu.statIssuedInstType_0::SimdDiv            0      0.00%     87.50% # Number of instructions issued per FU type, per thread (Count)
system.cpu.statIssuedInstType_0::SimdSqrt            0      0.00%     87.50% # Number of instructions issued per FU type, per thread (Count)
system.cpu.statIssuedInstType_0::SimdFloatAdd            0      0.00%     87.50% # Number of instructions issued per FU type, per thread (Count)
system.cpu.statIssuedInstType_0::SimdFloatAlu            0      0.00%     87.50% # Number of instructions issued per FU type, per thread (Count)
system.cpu.statIssuedInstType_0::SimdFloatCmp            0      0.00%     87.50% # Number of instructions issued per FU type, per thread (Count)
system.cpu.statIssuedInstType_0::SimdFloatCvt            0      0.00%     87.50% # Number of instructions issued per FU type, per thread (Count)
system.cpu.statIssuedInstType_0::SimdFloatDiv            0      0.00%     87.50% # Number of instructions issued per FU type, per thread (Count)
system.cpu.statIssuedInstType_0::SimdFloatMisc            0      0.00%     87.50% # Number of instructions issued per FU type, per thread (Count)
system.cpu.statIssuedInstType_0::SimdFloatMult            0      0.00%     87.50% # Number of instructions issued per FU type, per thread (Count)
system.cpu.statIssuedInstType_0::SimdFloatMultAcc            0      0.00%     87.50% # Number of instructions issued per FU type, per thread (Count)
system.cpu.statIssuedInstType_0::SimdFloatSqrt            0      0.00%     87.50% # Number of instructions issued per FU type, per thread (Count)
system.cpu.statIssuedInstType_0::SimdReduceAdd            0      0.00%     87.50% # Number of instructions issued per FU type, per thread (Count)
system.cpu.statIssuedInstType_0::SimdReduceAlu            0      0.00%     87.50% # Number of instructions issued per FU type, per thread (Count)
system.cpu.statIssuedInstType_0::SimdReduceCmp            0      0.00%     87.50% # Number of instructions issued per FU type, per thread (Count)
system.cpu.statIssuedInstType_0::SimdFloatReduceAdd            0      0.00%     87.50% # Number of instructions issued per FU type, per thread (Count)
system.cpu.statIssuedInstType_0::SimdFloatReduceCmp            0      0.00%     87.50% # Number of instructions issued per FU type, per thread (Count)
system.cpu.statIssuedInstType_0::SimdAes            0      0.00%     87.50% # Number of instructions issued per FU type, per thread (Count)
system.cpu.statIssuedInstType_0::SimdAesMix            0      0.00%     87.50% # Number of instructions issued per FU type, per thread (Count)
system.cpu.statIssuedInstType_0::SimdSha1Hash            0      0.00%     87.50% # Number of instructions issued per FU type, per thread (Count)
system.cpu.statIssuedInstType_0::SimdSha1Hash2            0      0.00%     87.50% # Number of instructions issued per FU type, per thread (Count)
system.cpu.statIssuedInstType_0::SimdSha256Hash            0      0.00%     87.50% # Number of instructions issued per FU type, per thread (Count)
system.cpu.statIssuedInstType_0::SimdSha256Hash2            0      0.00%     87.50% # Number of instructions issued per FU type, per thread (Count)
system.cpu.statIssuedInstType_0::SimdShaSigma2            0      0.00%     87.50% # Number of instructions issued per FU type, per thread (Count)
system.cpu.statIssuedInstType_0::SimdShaSigma3            0      0.00%     87.50% # Number of instructions issued per FU type, per thread (Count)
system.cpu.statIssuedInstType_0::SimdPredAlu            0      0.00%     87.50% # Number of instructions issued per FU type, per thread (Count)
system.cpu.statIssuedInstType_0::MemRead      1048597     12.50%    100.00% # Number of instructions issued per FU type, per thread (Count)
system.cpu.statIssuedInstType_0::MemWrite           37      0.00%    100.00% # Number of instructions issued per FU type, per thread (Count)
system.cpu.statIssuedInstType_0::FloatMemRead            0      0.00%    100.00% # Number of instructions issued per FU type, per thread (Count)
system.cpu.statIssuedInstType_0::FloatMemWrite            0      0.00%    100.00% # Number of instructions issued per FU type, per thread (Count)
system.cpu.statIssuedInstType_0::IprAccess            0      0.00%    100.00% # Number of instructions issued per FU type, per thread (Count)
system.cpu.statIssuedInstType_0::InstPrefetch            0      0.00%    100.00% # Number of instructions issued per FU type, per thread (Count)
system.cpu.statIssuedInstType_0::total        8388812                       # Number of instructions issued per FU type, per thread (Count)
system.cpu.issueRate                         0.337920                       # Inst issue rate ((Count/Cycle))
system.cpu.fuBusy                                  20                       # FU busy when requested (Count)
system.cpu.fuBusyRate                        0.000002                       # FU busy rate (busy events/executed inst) ((Count/Count))
system.cpu.intInstQueueReads                 41601449                       # Number of integer instruction queue reads (Count)
system.cpu.intInstQueueWrites                 8388875                       # Number of integer instruction queue writes (Count)
system.cpu.intInstQueueWakeupAccesses         8388786                       # Number of integer instruction queue wakeup accesses (Count)
system.cpu.fpInstQueueReads                        18                       # Number of floating instruction queue reads (Count)
system.cpu.fpInstQueueWrites                       10                       # Number of floating instruction queue writes (Count)
system.cpu.fpInstQueueWakeupAccesses                8                       # Number of floating instruction queue wakeup accesses (Count)
system.cpu.vecInstQueueReads                        0                       # Number of vector instruction queue reads (Count)
system.cpu.vecInstQueueWrites                       0                       # Number of vector instruction queue writes (Count)
system.cpu.vecInstQueueWakeupAccesses               0                       # Number of vector instruction queue wakeup accesses (Count)
system.cpu.intAluAccesses                     8388793                       # Number of integer alu accesses (Count)
system.cpu.fpAluAccesses                           10                       # Number of floating point alu accesses (Count)
system.cpu.vecAluAccesses                           0                       # Number of vector alu accesses (Count)
system.cpu.idleCycles                               0                       # Number of cycles IEW is idle (Cycle)
system.cpu.squashCycles                             6                       # Number of cycles IEW is squashing (Cycle)
system.cpu.blockCycles                              4                       # Number of cycles IEW is blocking (Cycle)
system.cpu.unblockCycles                            0                       # Number of cycles IEW is unblocking (Cycle)
system.cpu.dispatchedInsts                    8388826                       # Number of instructions dispatched to IQ (Count)
system.cpu.dispSquashedInsts                        0                       # Number of squashed instructions skipped by dispatch (Count)
system.cpu.dispLoadInsts                      1048597                       # Number of dispatched load instructions (Count)
system.cpu.dispStoreInsts                          39                       # Number of dispatched store instructions (Count)
system.cpu.dispNonSpecInsts                         1                       # Number of dispatched non-speculative instructions (Count)
system.cpu.iqFullEvents                             0                       # Number of times the IQ has become full, causing a stall (Count)
system.cpu.lsqFullEvents                            0                       # Number of times the LSQ has become full, causing a stall (Count)
system.cpu.memOrderViolationEvents                  0                       # Number of memory order violations (Count)
system.cpu.predictedTakenIncorrect                  1                       # Number of branches that were predicted taken incorrectly (Count)
system.cpu.predictedNotTakenIncorrect               5                       # Number of branches that were predicted not taken incorrectly (Count)
system.cpu.branchMispredicts                        6                       # Number of branch mispredicts detected at execute (Count)
system.cpu.numInsts                           8388808                       # Number of executed instructions (Count)
system.cpu.numLoadInsts                       1048597                       # Number of load instructions executed (Count)
system.cpu.numSquashedInsts                         1                       # Number of squashed instructions skipped in execute (Count)
system.cpu.numSwp                                   0                       # Number of swp insts executed (Count)
system.cpu.numNop                                   0                       # Number of nop insts executed (Count)
system.cpu.numRefs                            1048633                       # Number of memory reference insts executed (Count)
system.cpu.numBranches                        1048592                       # Number of branches executed (Count)
system.cpu.numStoreInsts                           36                       # Number of stores executed (Count)
system.cpu.numRate                           0.337920                       # Inst execution rate ((Count/Cycle))
system.cpu.instsToCommit                      8388806                       # Cumulative count of insts sent to commit (Count)
system.cpu.writebackCount                     8388794                       # Cumulative count of insts written-back (Count)
system.cpu.producerInst                       6471772                       # Number of instructions producing a value (Count)
system.cpu.consumerInst                       7602300                       # Number of instructions consuming a value (Count)
system.cpu.wbRate                            0.337920                       # Insts written-back per cycle ((Count/Cycle))
system.cpu.wbFanout                          0.851291                       # Average fanout of values written-back ((Count/Count))
system.cpu.timesIdled                              30                       # Number of times that the entire CPU went into an idle state and unscheduled itself (Count)
system.cpu.idleCycles                             994                       # Total number of cycles that the CPU has spent unscheduled due to idling (Cycle)
system.cpu.committedInsts                     4194313                       # Number of Instructions Simulated (Count)
system.cpu.committedOps                       8388625                       # Number of Ops (including micro ops) Simulated (Count)
system.cpu.cpi                               5.918686                       # CPI: Cycles Per Instruction ((Cycle/Count))
system.cpu.totalCpi                          5.918686                       # CPI: Total CPI of All Threads ((Cycle/Count))
system.cpu.ipc                               0.168956                       # IPC: Instructions Per Cycle ((Count/Cycle))
system.cpu.totalIpc                          0.168956                       # IPC: Total IPC of All Threads ((Count/Cycle))
system.cpu.intRegfileReads                    8388830                       # Number of integer regfile reads (Count)
system.cpu.intRegfileWrites                   7340136                       # Number of integer regfile writes (Count)
system.cpu.fpRegfileReads                           8                       # Number of floating regfile reads (Count)
system.cpu.ccRegfileReads                     5242895                       # number of cc regfile reads (Count)
system.cpu.ccRegfileWrites                    4194326                       # number of cc regfile writes (Count)
system.cpu.miscRegfileReads                   3145842                       # number of misc regfile reads (Count)
system.cpu.MemDepUnit__0.insertedLoads        1048597                       # Number of loads inserted to the mem dependence unit. (Count)
system.cpu.MemDepUnit__0.insertedStores            39                       # Number of stores inserted to the mem dependence unit. (Count)
system.cpu.MemDepUnit__0.conflictingLoads            0                       # Number of conflicting loads. (Count)
system.cpu.MemDepUnit__0.conflictingStores            0                       # Number of conflicting stores. (Count)
system.cpu.MemDepUnit__1.insertedLoads              0                       # Number of loads inserted to the mem dependence unit. (Count)
system.cpu.MemDepUnit__1.insertedStores             0                       # Number of stores inserted to the mem dependence unit. (Count)
system.cpu.MemDepUnit__1.conflictingLoads            0                       # Number of conflicting loads. (Count)
system.cpu.MemDepUnit__1.conflictingStores            0                       # Number of conflicting stores. (Count)
system.cpu.MemDepUnit__2.insertedLoads              0                       # Number of loads inserted to the mem dependence unit. (Count)
system.cpu.MemDepUnit__2.insertedStores             0                       # Number of stores inserted to the mem dependence unit. (Count)
system.cpu.MemDepUnit__2.conflictingLoads            0                       # Number of conflicting loads. (Count)
system.cpu.MemDepUnit__2.conflictingStores            0                       # Number of conflicting stores. (Count)
system.cpu.MemDepUnit__3.insertedLoads              0                       # Number of loads inserted to the mem dependence unit. (Count)
system.cpu.MemDepUnit__3.insertedStores             0                       # Number of stores inserted to the mem dependence unit. (Count)
system.cpu.MemDepUnit__3.conflictingLoads            0                       # Number of conflicting loads. (Count)
system.cpu.MemDepUnit__3.conflictingStores            0                       # Number of conflicting stores. (Count)
system.cpu.branchPred.lookups                 1048624                       # Number of BP lookups (Count)
system.cpu.branchPred.condPredicted           1048584                       # Number of conditional branches predicted (Count)
system.cpu.branchPred.condIncorrect                 9                       # Number of conditional branches incorrect (Count)
system.cpu.branchPred.BTBLookups              1048596                       # Number of BTB lookups (Count)
system.cpu.branchPred.BTBHits                 1048591                       # Number of BTB hits (Count)
system.cpu.branchPred.BTBHitRatio            0.999995                       # BTB Hit Ratio (Ratio)
system.cpu.branchPred.RASUsed                       1                       # Number of times the RAS was used to get a target. (Count)
system.cpu.branchPred.RASIncorrect                  0                       # Number of incorrect RAS predictions. (Count)
system.cpu.branchPred.indirectLookups              23                       # Number of indirect predictor lookups. (Count)
system.cpu.branchPred.indirectHits                  1                       # Number of indirect target hits. (Count)
system.cpu.branchPred.indirectMisses               22                       # Number of indirect misses. (Count)
system.cpu.branchPred.indirectMispredicted            2                       # Number of mispredicted indirect branches. (Count)
system.cpu.commit.commitSquashedInsts              23                       # The number of squashed insts skipped by commit (Count)
system.cpu.commit.commitNonSpecStalls               1                       # The number of times commit has been forced to stall to communicate backwards (Count)
system.cpu.commit.branchMispredicts                 6                       # The number of times a branch was mispredicted (Count)
system.cpu.commit.numCommittedDist::samples     24823816                       # Number of insts commited each cycle (Count)
system.cpu.commit.numCommittedDist::mean     0.337926                       # Number of insts commited each cycle (Count)
system.cpu.commit.numCommittedDist::stdev     1.609104                       # Number of insts commited each cycle (Count)
system.cpu.commit.numCommittedDist::underflows            0      0.00%      0.00% # Number of insts commited each cycle (Count)
system.cpu.commit.numCommittedDist::0        23775236     95.78%     95.78% # Number of insts commited each cycle (Count)
system.cpu.commit.numCommittedDist::1               0      0.00%     95.78% # Number of insts commited each cycle (Count)
system.cpu.commit.numCommittedDist::2               0      0.00%     95.78% # Number of insts commited each cycle (Count)
system.cpu.commit.numCommittedDist::3               1      0.00%     95.78% # Number of insts commited each cycle (Count)
system.cpu.commit.numCommittedDist::4               1      0.00%     95.78% # Number of insts commited each cycle (Count)
system.cpu.commit.numCommittedDist::5               2      0.00%     95.78% # Number of insts commited each cycle (Count)
system.cpu.commit.numCommittedDist::6               0      0.00%     95.78% # Number of insts commited each cycle (Count)
system.cpu.commit.numCommittedDist::7               0      0.00%     95.78% # Number of insts commited each cycle (Count)
system.cpu.commit.numCommittedDist::8         1048576      4.22%    100.00% # Number of insts commited each cycle (Count)
system.cpu.commit.numCommittedDist::overflows            0      0.00%    100.00% # Number of insts commited each cycle (Count)
system.cpu.commit.numCommittedDist::min_value            0                       # Number of insts commited each cycle (Count)
system.cpu.commit.numCommittedDist::max_value            8                       # Number of insts commited each cycle (Count)
system.cpu.commit.numCommittedDist::total     24823816                       # Number of insts commited each cycle (Count)
system.cpu.commit.instsCommitted              4194313                       # Number of instructions committed (Count)
system.cpu.commit.opsCommitted                8388625                       # Number of ops (including micro ops) committed (Count)
system.cpu.commit.memRefs                     1048578                       # Number of memory references committed (Count)
system.cpu.commit.loads                       1048577                       # Number of loads committed (Count)
system.cpu.commit.amos                              0                       # Number of atomic instructions committed (Count)
system.cpu.commit.membars                           0                       # Number of memory barriers committed (Count)
system.cpu.commit.branches                    1048579                       # Number of branches committed (Count)
system.cpu.commit.vectorInstructions                0                       # Number of committed Vector instructions. (Count)
system.cpu.commit.floating                          0                       # Number of committed floating point instructions. (Count)
system.cpu.commit.integer                     8388623                       # Number of committed integer instructions. (Count)
system.cpu.commit.functionCalls                     1                       # Number of function calls committed. (Count)
system.cpu.commit.committedInstType_0::No_OpClass            1      0.00%      0.00% # Class of committed instruction (Count)
system.cpu.commit.committedInstType_0::IntAlu      7340046     87.50%     87.50% # Class of committed instruction (Count)
system.cpu.commit.committedInstType_0::IntMult            0      0.00%     87.50% # Class of committed instruction (Count)
system.cpu.commit.committedInstType_0::IntDiv            0      0.00%     87.50% # Class of committed instruction (Count)
system.cpu.commit.committedInstType_0::FloatAdd            0      0.00%     87.50% # Class of committed instruction (Count)
system.cpu.commit.committedInstType_0::FloatCmp            0      0.00%     87.50% # Class of committed instruction (Count)
system.cpu.commit.committedInstType_0::FloatCvt            0      0.00%     87.50% # Class of committed instruction (Count)
system.cpu.commit.committedInstType_0::FloatMult            0      0.00%     87.50% # Class of committed instruction (Count)
system.cpu.commit.committedInstType_0::FloatMultAcc            0      0.00%     87.50% # Class of committed instruction (Count)
system.cpu.commit.committedInstType_0::FloatDiv            0      0.00%     87.50% # Class of committed instruction (Count)
system.cpu.commit.committedInstType_0::FloatMisc            0      0.00%     87.50% # Class of committed instruction (Count)
system.cpu.commit.committedInstType_0::FloatSqrt            0      0.00%     87.50% # Class of committed instruction (Count)
system.cpu.commit.committedInstType_0::SimdAdd            0      0.00%     87.50% # Class of committed instruction (Count)
system.cpu.commit.committedInstType_0::SimdAddAcc            0      0.00%     87.50% # Class of committed instruction (Count)
system.cpu.commit.committedInstType_0::SimdAlu            0      0.00%     87.50% # Class of committed instruction (Count)
system.cpu.commit.committedInstType_0::SimdCmp            0      0.00%     87.50% # Class of committed instruction (Count)
system.cpu.commit.committedInstType_0::SimdCvt            0      0.00%     87.50% # Class of committed instruction (Count)
system.cpu.commit.committedInstType_0::SimdMisc            0      0.00%     87.50% # Class of committed instruction (Count)
system.cpu.commit.committedInstType_0::SimdMult            0      0.00%     87.50% # Class of committed instruction (Count)
system.cpu.commit.committedInstType_0::SimdMultAcc            0      0.00%     87.50% # Class of committed instruction (Count)
system.cpu.commit.committedInstType_0::SimdShift            0      0.00%     87.50% # Class of committed instruction (Count)
system.cpu.commit.committedInstType_0::SimdShiftAcc            0      0.00%     87.50% # Class of committed instruction (Count)
system.cpu.commit.committedInstType_0::SimdDiv            0      0.00%     87.50% # Class of committed instruction (Count)
system.cpu.commit.committedInstType_0::SimdSqrt            0      0.00%     87.50% # Class of committed instruction (Count)
system.cpu.commit.committedInstType_0::SimdFloatAdd            0      0.00%     87.50% # Class of committed instruction (Count)
system.cpu.commit.committedInstType_0::SimdFloatAlu            0      0.00%     87.50% # Class of committed instruction (Count)
system.cpu.commit.committedInstType_0::SimdFloatCmp            0      0.00%     87.50% # Class of committed instruction (Count)
system.cpu.commit.committedInstType_0::SimdFloatCvt            0      0.00%     87.50% # Class of committed instruction (Count)
system.cpu.commit.committedInstType_0::SimdFloatDiv            0      0.00%     87.50% # Class of committed instruction (Count)
system.cpu.commit.committedInstType_0::SimdFloatMisc            0      0.00%     87.50% # Class of committed instruction (Count)
system.cpu.commit.committedInstType_0::SimdFloatMult            0      0.00%     87.50% # Class of committed instruction (Count)
system.cpu.commit.committedInstType_0::SimdFloatMultAcc            0      0.00%     87.50% # Class of committed instruction (Count)
system.cpu.commit.committedInstType_0::SimdFloatSqrt            0      0.00%     87.50% # Class of committed instruction (Count)
system.cpu.commit.committedInstType_0::SimdReduceAdd            0      0.00%     87.50% # Class of committed instruction (Count)
system.cpu.commit.committedInstType_0::SimdReduceAlu            0      0.00%     87.50% # Class of committed instruction (Count)
system.cpu.commit.committedInstType_0::SimdReduceCmp            0      0.00%     87.50% # Class of committed instruction (Count)
system.cpu.commit.committedInstType_0::SimdFloatReduceAdd            0      0.00%     87.50% # Class of committed instruction (Count)
system.cpu.commit.committedInstType_0::SimdFloatReduceCmp            0      0.00%     87.50% # Class of committed instruction (Count)
system.cpu.commit.committedInstType_0::SimdAes            0      0.00%     87.50% # Class of committed instruction (Count)
system.cpu.commit.committedInstType_0::SimdAesMix            0      0.00%     87.50% # Class of committed instruction (Count)
system.cpu.commit.committedInstType_0::SimdSha1Hash            0      0.00%     87.50% # Class of committed instruction (Count)
system.cpu.commit.committedInstType_0::SimdSha1Hash2            0      0.00%     87.50% # Class of committed instruction (Count)
system.cpu.commit.committedInstType_0::SimdSha256Hash            0      0.00%     87.50% # Class of committed instruction (Count)
system.cpu.commit.committedInstType_0::SimdSha256Hash2            0      0.00%     87.50% # Class of committed instruction (Count)
system.cpu.commit.committedInstType_0::SimdShaSigma2            0      0.00%     87.50% # Class of committed instruction (Count)
system.cpu.commit.committedInstType_0::SimdShaSigma3            0      0.00%     87.50% # Class of committed instruction (Count)
system.cpu.commit.committedInstType_0::SimdPredAlu            0      0.00%     87.50% # Class of committed instruction (Count)
system.cpu.commit.committedInstType_0::MemRead      1048577     12.50%    100.00% # Class of committed instruction (Count)
system.cpu.commit.committedInstType_0::MemWrite            1      0.00%    100.00% # Class of committed instruction (Count)
system.cpu.commit.committedInstType_0::FloatMemRead            0      0.00%    100.00% # Class of committed instruction (Count)
system.cpu.commit.committedInstType_0::FloatMemWrite            0      0.00%    100.00% # Class of committed instruction (Count)
system.cpu.commit.committedInstType_0::IprAccess            0      0.00%    100.00% # Class of committed instruction (Count)
system.cpu.commit.committedInstType_0::InstPrefetch            0      0.00%    100.00% # Class of committed instruction (Count)
system.cpu.commit.committedInstType_0::total      8388625                       # Class of committed instruction (Count)
system.cpu.commit.commitEligibleSamples       1048576                       # number cycles where commit BW limit reached (Cycle)
system.cpu.decode.idleCycles                   349848                       # Number of cycles decode is idle (Cycle)
[...]
system.mem_ctrl.rdPerTurnAround::16            251504     96.35%     98.20% # Reads before turning the bus around for writes (Count)
system.mem_ctrl.rdPerTurnAround::17              4602      1.76%     99.97% # Reads before turning the bus around for writes (Count)
system.mem_ctrl.rdPerTurnAround::18                75      0.03%    100.00% # Reads before turning the bus around for writes (Count)
system.mem_ctrl.rdPerTurnAround::19                 8      0.00%    100.00% # Reads before turning the bus around for writes (Count)
system.mem_ctrl.rdPerTurnAround::20                 3      0.00%    100.00% # Reads before turning the bus around for writes (Count)
system.mem_ctrl.rdPerTurnAround::21                 1      0.00%    100.00% # Reads before turning the bus around for writes (Count)
system.mem_ctrl.rdPerTurnAround::total         261032                       # Reads before turning the bus around for writes (Count)
system.mem_ctrl.wrPerTurnAround::samples       261032                       # Writes before turning the bus around for reads (Count)
system.mem_ctrl.wrPerTurnAround::mean       16.010049                       # Writes before turning the bus around for reads (Count)
system.mem_ctrl.wrPerTurnAround::gmean      16.009712                       # Writes before turning the bus around for reads (Count)
system.mem_ctrl.wrPerTurnAround::stdev       0.106715                       # Writes before turning the bus around for reads (Count)
system.mem_ctrl.wrPerTurnAround::16            258535     99.04%     99.04% # Writes before turning the bus around for reads (Count)
system.mem_ctrl.wrPerTurnAround::17              2426      0.93%     99.97% # Writes before turning the bus around for reads (Count)
system.mem_ctrl.wrPerTurnAround::18                22      0.01%     99.98% # Writes before turning the bus around for reads (Count)
system.mem_ctrl.wrPerTurnAround::19                44      0.02%    100.00% # Writes before turning the bus around for reads (Count)
system.mem_ctrl.wrPerTurnAround::20                 4      0.00%    100.00% # Writes before turning the bus around for reads (Count)
system.mem_ctrl.wrPerTurnAround::21                 1      0.00%    100.00% # Writes before turning the bus around for reads (Count)
system.mem_ctrl.wrPerTurnAround::total         261032                       # Writes before turning the bus around for reads (Count)
system.mem_ctrl.bytesReadWrQ                  1888128                       # Total number of bytes read from write queue (Byte)
system.mem_ctrl.bytesReadSys                269168512                       # Total read bytes from the system interface side (Byte)
system.mem_ctrl.bytesWrittenSys             269168512                       # Total written bytes from the system interface side (Byte)
system.mem_ctrl.avgRdBWSys               795227784.41557825                       # Average system read bandwidth in Byte/s ((Byte/Second))
system.mem_ctrl.avgWrBWSys               795227784.41557825                       # Average system write bandwidth in Byte/s ((Byte/Second))
system.mem_ctrl.totGap                   338479774000                       # Total gap between requests (Tick)
system.mem_ctrl.avgGap                       40240.04                       # Average gap between requests ((Tick/Count))
system.mem_ctrl.requestorReadBytes::caches.controllers1    267280384                       # Per-requestor bytes read from memory (Byte)
system.mem_ctrl.requestorWriteBytes::caches.controllers1    267464640                       # Per-requestor bytes write to memory (Byte)
system.mem_ctrl.requestorReadRate::caches.controllers1 789649524.778236150742                       # Per-requestor bytes read from memory rate ((Byte/Second))
system.mem_ctrl.requestorWriteRate::caches.controllers1 790193888.194137096405                       # Per-requestor bytes write to memory rate ((Byte/Second))
system.mem_ctrl.requestorReadAccesses::caches.controllers1      4205758                       # Per-requestor read serviced memory accesses (Count)
system.mem_ctrl.requestorWriteAccesses::caches.controllers1      4205758                       # Per-requestor write serviced memory accesses (Count)
system.mem_ctrl.requestorReadTotalLat::caches.controllers1 168781975750                       # Per-requestor read total memory access latency (Tick)
system.mem_ctrl.requestorWriteTotalLat::caches.controllers1 8382453426250                       # Per-requestor write total memory access latency (Tick)
system.mem_ctrl.requestorReadAvgLat::caches.controllers1     40131.17                       # Per-requestor read average memory access latency ((Tick/Count))
system.mem_ctrl.requestorWriteAvgLat::caches.controllers1   1993089.81                       # Per-requestor write average memory access latency ((Tick/Count))
system.mem_ctrl.dram.bytesRead::caches.controllers1    269168448                       # Number of bytes read from this memory (Byte)
system.mem_ctrl.dram.bytesRead::total       269168448                       # Number of bytes read from this memory (Byte)
system.mem_ctrl.dram.bytesWritten::caches.controllers1    269168512                       # Number of bytes written to this memory (Byte)
system.mem_ctrl.dram.bytesWritten::total    269168512                       # Number of bytes written to this memory (Byte)
system.mem_ctrl.dram.numReads::caches.controllers1      4205757                       # Number of read requests responded to by this memory (Count)
system.mem_ctrl.dram.numReads::total          4205757                       # Number of read requests responded to by this memory (Count)
system.mem_ctrl.dram.numWrites::caches.controllers1      4205758                       # Number of write requests responded to by this memory (Count)
system.mem_ctrl.dram.numWrites::total         4205758                       # Number of write requests responded to by this memory (Count)
system.mem_ctrl.dram.bwRead::caches.controllers1    795227595                       # Total read bandwidth from this memory ((Byte/Second))
system.mem_ctrl.dram.bwRead::total          795227595                       # Total read bandwidth from this memory ((Byte/Second))
system.mem_ctrl.dram.bwWrite::caches.controllers1    795227784                       # Write bandwidth from this memory ((Byte/Second))
system.mem_ctrl.dram.bwWrite::total         795227784                       # Write bandwidth from this memory ((Byte/Second))
system.mem_ctrl.dram.bwTotal::caches.controllers1   1590455380                       # Total bandwidth to/from this memory ((Byte/Second))
system.mem_ctrl.dram.bwTotal::total        1590455380                       # Total bandwidth to/from this memory ((Byte/Second))
system.mem_ctrl.dram.readBursts               4176256                       # Number of DRAM read bursts (Count)
system.mem_ctrl.dram.writeBursts              4179135                       # Number of DRAM write bursts (Count)
system.mem_ctrl.dram.perBankRdBursts::0        261449                       # Per bank write bursts (Count)
system.mem_ctrl.dram.perBankRdBursts::1        261293                       # Per bank write bursts (Count)
system.mem_ctrl.dram.perBankRdBursts::2        261141                       # Per bank write bursts (Count)
system.mem_ctrl.dram.perBankRdBursts::3        261265                       # Per bank write bursts (Count)
system.mem_ctrl.dram.perBankRdBursts::4        260977                       # Per bank write bursts (Count)
system.mem_ctrl.dram.perBankRdBursts::5        260903                       # Per bank write bursts (Count)
system.mem_ctrl.dram.perBankRdBursts::6        261127                       # Per bank write bursts (Count)
system.mem_ctrl.dram.perBankRdBursts::7        260719                       # Per bank write bursts (Count)
system.mem_ctrl.dram.perBankRdBursts::8        261022                       # Per bank write bursts (Count)
system.mem_ctrl.dram.perBankRdBursts::9        325733                       # Per bank write bursts (Count)
system.mem_ctrl.dram.perBankRdBursts::10       195976                       # Per bank write bursts (Count)
system.mem_ctrl.dram.perBankRdBursts::11       261181                       # Per bank write bursts (Count)
system.mem_ctrl.dram.perBankRdBursts::12       260528                       # Per bank write bursts (Count)
system.mem_ctrl.dram.perBankRdBursts::13       261177                       # Per bank write bursts (Count)
system.mem_ctrl.dram.perBankRdBursts::14       260917                       # Per bank write bursts (Count)
system.mem_ctrl.dram.perBankRdBursts::15       260848                       # Per bank write bursts (Count)
system.mem_ctrl.dram.perBankWrBursts::0        261873                       # Per bank write bursts (Count)
system.mem_ctrl.dram.perBankWrBursts::1        261385                       # Per bank write bursts (Count)
system.mem_ctrl.dram.perBankWrBursts::2        261218                       # Per bank write bursts (Count)
system.mem_ctrl.dram.perBankWrBursts::3        261356                       # Per bank write bursts (Count)
system.mem_ctrl.dram.perBankWrBursts::4        261243                       # Per bank write bursts (Count)
system.mem_ctrl.dram.perBankWrBursts::5        261090                       # Per bank write bursts (Count)
system.mem_ctrl.dram.perBankWrBursts::6        261345                       # Per bank write bursts (Count)
system.mem_ctrl.dram.perBankWrBursts::7        260833                       # Per bank write bursts (Count)
system.mem_ctrl.dram.perBankWrBursts::8        261086                       # Per bank write bursts (Count)
system.mem_ctrl.dram.perBankWrBursts::9        325815                       # Per bank write bursts (Count)
system.mem_ctrl.dram.perBankWrBursts::10       196169                       # Per bank write bursts (Count)
system.mem_ctrl.dram.perBankWrBursts::11       261314                       # Per bank write bursts (Count)
system.mem_ctrl.dram.perBankWrBursts::12       260763                       # Per bank write bursts (Count)
system.mem_ctrl.dram.perBankWrBursts::13       261382                       # Per bank write bursts (Count)
system.mem_ctrl.dram.perBankWrBursts::14       261145                       # Per bank write bursts (Count)
system.mem_ctrl.dram.perBankWrBursts::15       261118                       # Per bank write bursts (Count)
system.mem_ctrl.dram.totQLat              90477175750                       # Total ticks spent queuing (Tick)
system.mem_ctrl.dram.totBusLat            20881280000                       # Total ticks spent in databus transfers (Tick)
system.mem_ctrl.dram.totMemAccLat        168781975750                       # Total ticks spent from burst creation until serviced by the DRAM (Tick)
system.mem_ctrl.dram.avgQLat                 21664.66                       # Average queueing delay per DRAM burst ((Tick/Count))
system.mem_ctrl.dram.avgBusLat                5000.00                       # Average bus latency per DRAM burst ((Tick/Count))
system.mem_ctrl.dram.avgMemAccLat            40414.66                       # Average memory access latency per DRAM burst ((Tick/Count))
system.mem_ctrl.dram.readRowHits              1484075                       # Number of row buffer hits during reads (Count)
system.mem_ctrl.dram.writeRowHits             3496406                       # Number of row buffer hits during writes (Count)
system.mem_ctrl.dram.readRowHitRate             35.54                       # Row buffer hit rate for reads (Ratio)
system.mem_ctrl.dram.writeRowHitRate            83.66                       # Row buffer hit rate for writes (Ratio)
system.mem_ctrl.dram.bytesPerActivate::samples      3374906                       # Bytes accessed per row activation (Byte)
system.mem_ctrl.dram.bytesPerActivate::mean   158.446719                       # Bytes accessed per row activation (Byte)
system.mem_ctrl.dram.bytesPerActivate::gmean   127.834149                       # Bytes accessed per row activation (Byte)
system.mem_ctrl.dram.bytesPerActivate::stdev   115.521585                       # Bytes accessed per row activation (Byte)
system.mem_ctrl.dram.bytesPerActivate::0-127      1266774     37.54%     37.54% # Bytes accessed per row activation (Byte)
system.mem_ctrl.dram.bytesPerActivate::128-255      1383713     41.00%     78.54% # Bytes accessed per row activation (Byte)
system.mem_ctrl.dram.bytesPerActivate::256-383       496295     14.71%     93.24% # Bytes accessed per row activation (Byte)
system.mem_ctrl.dram.bytesPerActivate::384-511       153636      4.55%     97.79% # Bytes accessed per row activation (Byte)
system.mem_ctrl.dram.bytesPerActivate::512-639        49036      1.45%     99.25% # Bytes accessed per row activation (Byte)
system.mem_ctrl.dram.bytesPerActivate::640-767        17431      0.52%     99.76% # Bytes accessed per row activation (Byte)
system.mem_ctrl.dram.bytesPerActivate::768-895         5341      0.16%     99.92% # Bytes accessed per row activation (Byte)
system.mem_ctrl.dram.bytesPerActivate::896-1023         1602      0.05%     99.97% # Bytes accessed per row activation (Byte)
system.mem_ctrl.dram.bytesPerActivate::1024-1151         1078      0.03%    100.00% # Bytes accessed per row activation (Byte)
system.mem_ctrl.dram.bytesPerActivate::total      3374906                       # Bytes accessed per row activation (Byte)
system.mem_ctrl.dram.bytesRead              267280384                       # Total number of bytes read from DRAM (Byte)
system.mem_ctrl.dram.bytesWritten           267464640                       # Total number of bytes written to DRAM (Byte)
system.mem_ctrl.dram.avgRdBW               789.649525                       # Average DRAM read bandwidth in MiBytes/s ((Byte/Second))
system.mem_ctrl.dram.avgWrBW               790.193888                       # Average DRAM write bandwidth in MiBytes/s ((Byte/Second))
system.mem_ctrl.dram.peakBW                  12800.00                       # Theoretical peak bandwidth in MiByte/s ((Byte/Second))
system.mem_ctrl.dram.busUtil                    12.34                       # Data bus utilization in percentage (Ratio)
system.mem_ctrl.dram.busUtilRead                 6.17                       # Data bus utilization in percentage for reads (Ratio)
system.mem_ctrl.dram.busUtilWrite                6.17                       # Data bus utilization in percentage for writes (Ratio)
system.mem_ctrl.dram.pageHitRate                59.61                       # Row buffer hit rate, read and write combined (Ratio)
system.mem_ctrl.dram.power_state.pwrStateResidencyTicks::UNDEFINED 372974232000                       # Cumulative time (in ticks) in various power states (Tick)
system.mem_ctrl.dram.rank0.actEnergy      11934045900                       # Energy for activate commands per rank (pJ) (Joule)
system.mem_ctrl.dram.rank0.preEnergy       6343076850                       # Energy for precharge commands per rank (pJ) (Joule)
system.mem_ctrl.dram.rank0.readEnergy     14914710300                       # Energy for read commands per rank (pJ) (Joule)
system.mem_ctrl.dram.rank0.writeEnergy    10911663540                       # Energy for write commands per rank (pJ) (Joule)
system.mem_ctrl.dram.rank0.refreshEnergy 26719015440.000004                       # Energy for refresh commands per rank (pJ) (Joule)
system.mem_ctrl.dram.rank0.actBackEnergy 152416557330                       # Energy for active background per rank (pJ) (Joule)
system.mem_ctrl.dram.rank0.preBackEnergy   1626278880                       # Energy for precharge background per rank (pJ) (Joule)
system.mem_ctrl.dram.rank0.actPowerDownEnergy            0                       # Energy for active power-down per rank (pJ) (Joule)
system.mem_ctrl.dram.rank0.prePowerDownEnergy            0                       # Energy for precharge power-down per rank (pJ) (Joule)
system.mem_ctrl.dram.rank0.selfRefreshEnergy            0                       # Energy for self refresh per rank (pJ) (Joule)
system.mem_ctrl.dram.rank0.totalEnergy   224865348240                       # Total energy per rank (pJ) (Joule)
system.mem_ctrl.dram.rank0.averagePower    664.339121                       # Core power per rank (mW) (Watt)
system.mem_ctrl.dram.rank0.totalIdleTime            0                       # Total Idle time Per DRAM Rank (Tick)
system.mem_ctrl.dram.rank0.pwrStateTime::IDLE   2988740250                       # Time in different power states (Tick)
system.mem_ctrl.dram.rank0.pwrStateTime::REF  11302460000                       # Time in different power states (Tick)
system.mem_ctrl.dram.rank0.pwrStateTime::SREF            0                       # Time in different power states (Tick)
system.mem_ctrl.dram.rank0.pwrStateTime::PRE_PDN            0                       # Time in different power states (Tick)
system.mem_ctrl.dram.rank0.pwrStateTime::ACT 324190736750                       # Time in different power states (Tick)
system.mem_ctrl.dram.rank0.pwrStateTime::ACT_PDN            0                       # Time in different power states (Tick)
system.mem_ctrl.dram.rank1.actEnergy      12162954300                       # Energy for activate commands per rank (pJ) (Joule)
system.mem_ctrl.dram.rank1.preEnergy       6464744550                       # Energy for precharge commands per rank (pJ) (Joule)
system.mem_ctrl.dram.rank1.readEnergy     14903971740                       # Energy for read commands per rank (pJ) (Joule)
system.mem_ctrl.dram.rank1.writeEnergy    10903588200                       # Energy for write commands per rank (pJ) (Joule)
system.mem_ctrl.dram.rank1.refreshEnergy 26719015440.000004                       # Energy for refresh commands per rank (pJ) (Joule)
system.mem_ctrl.dram.rank1.actBackEnergy 152423170470                       # Energy for active background per rank (pJ) (Joule)
system.mem_ctrl.dram.rank1.preBackEnergy   1620794400                       # Energy for precharge background per rank (pJ) (Joule)
system.mem_ctrl.dram.rank1.actPowerDownEnergy            0                       # Energy for active power-down per rank (pJ) (Joule)
system.mem_ctrl.dram.rank1.prePowerDownEnergy            0                       # Energy for precharge power-down per rank (pJ) (Joule)
system.mem_ctrl.dram.rank1.selfRefreshEnergy            0                       # Energy for self refresh per rank (pJ) (Joule)
system.mem_ctrl.dram.rank1.totalEnergy   225198239100                       # Total energy per rank (pJ) (Joule)
system.mem_ctrl.dram.rank1.averagePower    665.322609                       # Core power per rank (mW) (Watt)
system.mem_ctrl.dram.rank1.totalIdleTime            0                       # Total Idle time Per DRAM Rank (Tick)
system.mem_ctrl.dram.rank1.pwrStateTime::IDLE   2959792250                       # Time in different power states (Tick)
system.mem_ctrl.dram.rank1.pwrStateTime::REF  11302460000                       # Time in different power states (Tick)
system.mem_ctrl.dram.rank1.pwrStateTime::SREF            0                       # Time in different power states (Tick)
system.mem_ctrl.dram.rank1.pwrStateTime::PRE_PDN            0                       # Time in different power states (Tick)
system.mem_ctrl.dram.rank1.pwrStateTime::ACT 324219904500                       # Time in different power states (Tick)
system.mem_ctrl.dram.rank1.pwrStateTime::ACT_PDN            0                       # Time in different power states (Tick)
system.mem_ctrl.power_state.pwrStateResidencyTicks::UNDEFINED 372974232000                       # Cumulative time (in ticks) in various power states (Tick)
system.workload.inst.arm                            0                       # number of arm instructions executed (Count)
system.workload.inst.quiesce                        0                       # number of quiesce instructions executed (Count)

---------- End Simulation Statistics   ----------
