
---------- Begin Simulation Statistics ----------
simSeconds                                   0.051234                       # Number of seconds simulated (Second)
simTicks                                  51234080000                       # Number of ticks simulated (Tick)
finalTick                                 51234080000                       # Number of ticks from beginning of simulation (restored from checkpoints and never reset) (Tick)
simFreq                                  1000000000000                       # The number of ticks per simulated second ((Tick/Second))
hostSeconds                                    176.33                       # Real time elapsed on the host (Second)
hostTickRate                                290562416                       # The number of ticks simulated per host second (ticks/s) ((Tick/Second))
hostMemory                                    9639680                       # Number of bytes of host memory used (Byte)
simInsts                                     46698355                       # Number of instructions simulated (Count)
simOps                                       83201955                       # Number of ops (including micro ops) simulated (Count)
hostInstRate                                   264839                       # Simulator instruction rate (inst/s) ((Count/Second))
hostOpRate                                     471861                       # Simulator op (including micro ops) rate (op/s) ((Count/Second))
system.caches.delayHistogram::bucket_size            2                       # delay histogram for all message (Unspecified)
system.caches.delayHistogram::max_bucket           19                       # delay histogram for all message (Unspecified)
system.caches.delayHistogram::samples           71864                       # delay histogram for all message (Unspecified)
system.caches.delayHistogram::mean           0.030363                       # delay histogram for all message (Unspecified)
system.caches.delayHistogram::stdev          0.428611                       # delay histogram for all message (Unspecified)
system.caches.delayHistogram             |       71438     99.41%     99.41% |          92      0.13%     99.54% |          95      0.13%     99.67% |         156      0.22%     99.88% |          81      0.11%    100.00% |           0      0.00%    100.00% |           0      0.00%    100.00% |           0      0.00%    100.00% |           1      0.00%    100.00% |           1      0.00%    100.00% # delay histogram for all message (Unspecified)
system.caches.delayHistogram::total             71864                       # delay histogram for all message (Unspecified)
system.caches.m_outstandReqHistSeqr::bucket_size            2                       (Unspecified)
system.caches.m_outstandReqHistSeqr::max_bucket           19                       (Unspecified)
system.caches.m_outstandReqHistSeqr::samples     27809387                       (Unspecified)
system.caches.m_outstandReqHistSeqr::mean     1.342562                       (Unspecified)
system.caches.m_outstandReqHistSeqr::gmean     1.233473                       (Unspecified)
system.caches.m_outstandReqHistSeqr::stdev     0.703739                       (Unspecified)
system.caches.m_outstandReqHistSeqr      |    20564899     73.95%     73.95% |     6768576     24.34%     98.29% |      435225      1.57%     99.85% |       13483      0.05%     99.90% |       10307      0.04%     99.94% |       11046      0.04%     99.98% |        2896      0.01%     99.99% |        1620      0.01%    100.00% |        1335      0.00%    100.00% |           0      0.00%    100.00% (Unspecified)
system.caches.m_outstandReqHistSeqr::total     27809387                       (Unspecified)
system.caches.m_latencyHistSeqr::bucket_size           64                       (Unspecified)
system.caches.m_latencyHistSeqr::max_bucket          639                       (Unspecified)
system.caches.m_latencyHistSeqr::samples     28098325                       (Unspecified)
system.caches.m_latencyHistSeqr::mean        1.116716                       (Unspecified)
system.caches.m_latencyHistSeqr::gmean       1.012831                       (Unspecified)
system.caches.m_latencyHistSeqr::stdev       3.250228                       (Unspecified)
system.caches.m_latencyHistSeqr          |    28071380     99.90%     99.90% |       23678      0.08%     99.99% |        2524      0.01%    100.00% |         371      0.00%    100.00% |         248      0.00%    100.00% |         105      0.00%    100.00% |          10      0.00%    100.00% |           9      0.00%    100.00% |           0      0.00%    100.00% |           0      0.00%    100.00% (Unspecified)
system.caches.m_latencyHistSeqr::total       28098325                       (Unspecified)
system.caches.m_hitLatencyHistSeqr::bucket_size           16                       (Unspecified)
system.caches.m_hitLatencyHistSeqr::max_bucket          159                       (Unspecified)
system.caches.m_hitLatencyHistSeqr::samples     28062137                       (Unspecified)
system.caches.m_hitLatencyHistSeqr::mean     1.010323                       (Unspecified)
system.caches.m_hitLatencyHistSeqr::gmean     1.007164                       (Unspecified)
system.caches.m_hitLatencyHistSeqr::stdev     0.112053                       (Unspecified)
system.caches.m_hitLatencyHistSeqr       |    28062126    100.00%    100.00% |           2      0.00%    100.00% |           3      0.00%    100.00% |           1      0.00%    100.00% |           2      0.00%    100.00% |           1      0.00%    100.00% |           0      0.00%    100.00% |           0      0.00%    100.00% |           1      0.00%    100.00% |           1      0.00%    100.00% (Unspecified)
system.caches.m_hitLatencyHistSeqr::total     28062137                       (Unspecified)
system.caches.m_missLatencyHistSeqr::bucket_size           64                       (Unspecified)
system.caches.m_missLatencyHistSeqr::max_bucket          639                       (Unspecified)
system.caches.m_missLatencyHistSeqr::samples        36188                       (Unspecified)
system.caches.m_missLatencyHistSeqr::mean    83.619570                       (Unspecified)
system.caches.m_missLatencyHistSeqr::gmean    78.516043                       (Unspecified)
system.caches.m_missLatencyHistSeqr::stdev    37.111310                       (Unspecified)
system.caches.m_missLatencyHistSeqr      |        9248     25.56%     25.56% |       23675     65.42%     90.98% |        2522      6.97%     97.95% |         371      1.03%     98.97% |         248      0.69%     99.66% |         105      0.29%     99.95% |          10      0.03%     99.98% |           9      0.02%    100.00% |           0      0.00%    100.00% |           0      0.00%    100.00% (Unspecified)
system.caches.m_missLatencyHistSeqr::total        36188                       (Unspecified)
system.caches.delayVCHist.vnet_1::bucket_size            1                       # delay histogram for vnet_1 (Unspecified)
system.caches.delayVCHist.vnet_1::max_bucket            9                       # delay histogram for vnet_1 (Unspecified)
system.caches.delayVCHist.vnet_1::samples        36188                       # delay histogram for vnet_1 (Unspecified)
system.caches.delayVCHist.vnet_1::mean       0.001603                       # delay histogram for vnet_1 (Unspecified)
system.caches.delayVCHist.vnet_1::stdev      0.093434                       # delay histogram for vnet_1 (Unspecified)
system.caches.delayVCHist.vnet_1         |       36175     99.96%     99.96% |           0      0.00%     99.96% |           4      0.01%     99.98% |           0      0.00%     99.98% |           4      0.01%     99.99% |           0      0.00%     99.99% |           3      0.01%     99.99% |           0      0.00%     99.99% |           2      0.01%    100.00% |           0      0.00%    100.00% # delay histogram for vnet_1 (Unspecified)
system.caches.delayVCHist.vnet_1::total         36188                       # delay histogram for vnet_1 (Unspecified)
system.caches.delayVCHist.vnet_2::bucket_size            2                       # delay histogram for vnet_2 (Unspecified)
system.caches.delayVCHist.vnet_2::max_bucket           19                       # delay histogram for vnet_2 (Unspecified)
system.caches.delayVCHist.vnet_2::samples        35676                       # delay histogram for vnet_2 (Unspecified)
system.caches.delayVCHist.vnet_2::mean       0.059536                       # delay histogram for vnet_2 (Unspecified)
system.caches.delayVCHist.vnet_2::stdev      0.599592                       # delay histogram for vnet_2 (Unspecified)
system.caches.delayVCHist.vnet_2         |       35263     98.84%     98.84% |          88      0.25%     99.09% |          91      0.26%     99.34% |         153      0.43%     99.77% |          79      0.22%     99.99% |           0      0.00%     99.99% |           0      0.00%     99.99% |           0      0.00%     99.99% |           1      0.00%    100.00% |           1      0.00%    100.00% # delay histogram for vnet_2 (Unspecified)
system.caches.delayVCHist.vnet_2::total         35676                       # delay histogram for vnet_2 (Unspecified)
system.caches.L1Cache_Controller.Load         8931394      0.00%      0.00% (Unspecified)
system.caches.L1Cache_Controller.Ifetch       8215696      0.00%      0.00% (Unspecified)
system.caches.L1Cache_Controller.Store       10951236      0.00%      0.00% (Unspecified)
system.caches.L1Cache_Controller.Data           36188      0.00%      0.00% (Unspecified)
system.caches.L1Cache_Controller.Replacement        35677      0.00%      0.00% (Unspecified)
system.caches.L1Cache_Controller.Writeback_Ack        35676      0.00%      0.00% (Unspecified)
system.caches.L1Cache_Controller.I.Load         14845      0.00%      0.00% (Unspecified)
system.caches.L1Cache_Controller.I.Ifetch         2208      0.00%      0.00% (Unspecified)
system.caches.L1Cache_Controller.I.Store        19136      0.00%      0.00% (Unspecified)
system.caches.L1Cache_Controller.M.Load       8916549      0.00%      0.00% (Unspecified)
system.caches.L1Cache_Controller.M.Ifetch      8213488      0.00%      0.00% (Unspecified)
system.caches.L1Cache_Controller.M.Store     10932100      0.00%      0.00% (Unspecified)
system.caches.L1Cache_Controller.M.Replacement        35677      0.00%      0.00% (Unspecified)
system.caches.L1Cache_Controller.MI.Writeback_Ack        35676      0.00%      0.00% (Unspecified)
system.caches.L1Cache_Controller.IS.Data        17052      0.00%      0.00% (Unspecified)
system.caches.L1Cache_Controller.IM.Data        19136      0.00%      0.00% (Unspecified)
system.caches.Directory_Controller.GETX         36188      0.00%      0.00% (Unspecified)
system.caches.Directory_Controller.PUTX         35676      0.00%      0.00% (Unspecified)
system.caches.Directory_Controller.Memory_Data        36188      0.00%      0.00% (Unspecified)
system.caches.Directory_Controller.Memory_Ack        35676      0.00%      0.00% (Unspecified)
system.caches.Directory_Controller.I.GETX        36188      0.00%      0.00% (Unspecified)
system.caches.Directory_Controller.M.PUTX        35676      0.00%      0.00% (Unspecified)
system.caches.Directory_Controller.IM.Memory_Data        36188      0.00%      0.00% (Unspecified)
system.caches.Directory_Controller.MI.Memory_Ack        35676      0.00%      0.00% (Unspecified)
system.caches.MachineType.Directory.miss_mach_latency_hist_seqr::bucket_size           64                       (Unspecified)
system.caches.MachineType.Directory.miss_mach_latency_hist_seqr::max_bucket          639                       (Unspecified)
system.caches.MachineType.Directory.miss_mach_latency_hist_seqr::samples        36188                       (Unspecified)
system.caches.MachineType.Directory.miss_mach_latency_hist_seqr::mean    83.619570                       (Unspecified)
system.caches.MachineType.Directory.miss_mach_latency_hist_seqr::gmean    78.516043                       (Unspecified)
system.caches.MachineType.Directory.miss_mach_latency_hist_seqr::stdev    37.111310                       (Unspecified)
system.caches.MachineType.Directory.miss_mach_latency_hist_seqr |        9248     25.56%     25.56% |       23675     65.42%     90.98% |        2522      6.97%     97.95% |         371      1.03%     98.97% |         248      0.69%     99.66% |         105      0.29%     99.95% |          10      0.03%     99.98% |           9      0.02%    100.00% |           0      0.00%    100.00% |           0      0.00%    100.00% (Unspecified)
system.caches.MachineType.Directory.miss_mach_latency_hist_seqr::total        36188                       (Unspecified)
system.caches.MachineType.Directory.miss_latency_hist_seqr.issue_to_initial_request::bucket_size            1                       (Unspecified)
system.caches.MachineType.Directory.miss_latency_hist_seqr.issue_to_initial_request::max_bucket            9                       (Unspecified)
system.caches.MachineType.Directory.miss_latency_hist_seqr.issue_to_initial_request::samples            1                       (Unspecified)
system.caches.MachineType.Directory.miss_latency_hist_seqr.issue_to_initial_request::stdev          nan                       (Unspecified)
system.caches.MachineType.Directory.miss_latency_hist_seqr.issue_to_initial_request |           1    100.00%    100.00% |           0      0.00%    100.00% |           0      0.00%    100.00% |           0      0.00%    100.00% |           0      0.00%    100.00% |           0      0.00%    100.00% |           0      0.00%    100.00% |           0      0.00%    100.00% |           0      0.00%    100.00% |           0      0.00%    100.00% (Unspecified)
system.caches.MachineType.Directory.miss_latency_hist_seqr.issue_to_initial_request::total            1                       (Unspecified)
system.caches.MachineType.Directory.miss_latency_hist_seqr.initial_to_forward::bucket_size            1                       (Unspecified)
system.caches.MachineType.Directory.miss_latency_hist_seqr.initial_to_forward::max_bucket            9                       (Unspecified)
system.caches.MachineType.Directory.miss_latency_hist_seqr.initial_to_forward::samples            1                       (Unspecified)
system.caches.MachineType.Directory.miss_latency_hist_seqr.initial_to_forward::stdev          nan                       (Unspecified)
system.caches.MachineType.Directory.miss_latency_hist_seqr.initial_to_forward |           1    100.00%    100.00% |           0      0.00%    100.00% |           0      0.00%    100.00% |           0      0.00%    100.00% |           0      0.00%    100.00% |           0      0.00%    100.00% |           0      0.00%    100.00% |           0      0.00%    100.00% |           0      0.00%    100.00% |           0      0.00%    100.00% (Unspecified)
system.caches.MachineType.Directory.miss_latency_hist_seqr.initial_to_forward::total            1                       (Unspecified)
system.caches.MachineType.Directory.miss_latency_hist_seqr.forward_to_first_response::bucket_size            1                       (Unspecified)
system.caches.MachineType.Directory.miss_latency_hist_seqr.forward_to_first_response::max_bucket            9                       (Unspecified)
system.caches.MachineType.Directory.miss_latency_hist_seqr.forward_to_first_response::samples            1                       (Unspecified)
system.caches.MachineType.Directory.miss_latency_hist_seqr.forward_to_first_response::stdev          nan                       (Unspecified)
system.caches.MachineType.Directory.miss_latency_hist_seqr.forward_to_first_response |           1    100.00%    100.00% |           0      0.00%    100.00% |           0      0.00%    100.00% |           0      0.00%    100.00% |           0      0.00%    100.00% |           0      0.00%    100.00% |           0      0.00%    100.00% |           0      0.00%    100.00% |           0      0.00%    100.00% |           0      0.00%    100.00% (Unspecified)
system.caches.MachineType.Directory.miss_latency_hist_seqr.forward_to_first_response::total            1                       (Unspecified)
system.caches.MachineType.Directory.miss_latency_hist_seqr.first_response_to_completion::bucket_size            8                       (Unspecified)
system.caches.MachineType.Directory.miss_latency_hist_seqr.first_response_to_completion::max_bucket           79                       (Unspecified)
system.caches.MachineType.Directory.miss_latency_hist_seqr.first_response_to_completion::samples            1                       (Unspecified)
system.caches.MachineType.Directory.miss_latency_hist_seqr.first_response_to_completion::mean           73                       (Unspecified)
system.caches.MachineType.Directory.miss_latency_hist_seqr.first_response_to_completion::gmean    73.000000                       (Unspecified)
system.caches.MachineType.Directory.miss_latency_hist_seqr.first_response_to_completion::stdev          nan                       (Unspecified)
system.caches.MachineType.Directory.miss_latency_hist_seqr.first_response_to_completion |           0      0.00%      0.00% |           0      0.00%      0.00% |           0      0.00%      0.00% |           0      0.00%      0.00% |           0      0.00%      0.00% |           0      0.00%      0.00% |           0      0.00%      0.00% |           0      0.00%      0.00% |           0      0.00%      0.00% |           1    100.00%    100.00% (Unspecified)
system.caches.MachineType.Directory.miss_latency_hist_seqr.first_response_to_completion::total            1                       (Unspecified)
system.caches.MachineType.Directory.incomplete_times_seqr        36187                       (Unspecified)
system.caches.RequestType.LD.latency_hist_seqr::bucket_size           64                       (Unspecified)
system.caches.RequestType.LD.latency_hist_seqr::max_bucket          639                       (Unspecified)
system.caches.RequestType.LD.latency_hist_seqr::samples      8931394                       (Unspecified)
system.caches.RequestType.LD.latency_hist_seqr::mean     1.132323                       (Unspecified)
system.caches.RequestType.LD.latency_hist_seqr::gmean     1.007193                       (Unspecified)
system.caches.RequestType.LD.latency_hist_seqr::stdev     3.630856                       (Unspecified)
system.caches.RequestType.LD.latency_hist_seqr |     8922665     99.90%     99.90% |        7202      0.08%     99.98% |        1187      0.01%    100.00% |         167      0.00%    100.00% |         118      0.00%    100.00% |          45      0.00%    100.00% |           6      0.00%    100.00% |           4      0.00%    100.00% |           0      0.00%    100.00% |           0      0.00%    100.00% (Unspecified)
system.caches.RequestType.LD.latency_hist_seqr::total      8931394                       (Unspecified)
system.caches.RequestType.LD.hit_latency_hist_seqr::bucket_size            4                       (Unspecified)
system.caches.RequestType.LD.hit_latency_hist_seqr::max_bucket           39                       (Unspecified)
system.caches.RequestType.LD.hit_latency_hist_seqr::samples      8916549                       (Unspecified)
system.caches.RequestType.LD.hit_latency_hist_seqr::mean     1.000004                       (Unspecified)
system.caches.RequestType.LD.hit_latency_hist_seqr::gmean     1.000001                       (Unspecified)
system.caches.RequestType.LD.hit_latency_hist_seqr::stdev     0.008093                       (Unspecified)
system.caches.RequestType.LD.hit_latency_hist_seqr |     8916546    100.00%    100.00% |           1      0.00%    100.00% |           0      0.00%    100.00% |           1      0.00%    100.00% |           0      0.00%    100.00% |           1      0.00%    100.00% |           0      0.00%    100.00% |           0      0.00%    100.00% |           0      0.00%    100.00% |           0      0.00%    100.00% (Unspecified)
system.caches.RequestType.LD.hit_latency_hist_seqr::total      8916549                       (Unspecified)
system.caches.RequestType.LD.miss_latency_hist_seqr::bucket_size           64                       (Unspecified)
system.caches.RequestType.LD.miss_latency_hist_seqr::max_bucket          639                       (Unspecified)
system.caches.RequestType.LD.miss_latency_hist_seqr::samples        14845                       (Unspecified)
system.caches.RequestType.LD.miss_latency_hist_seqr::mean    80.608353                       (Unspecified)
system.caches.RequestType.LD.miss_latency_hist_seqr::gmean    74.531599                       (Unspecified)
system.caches.RequestType.LD.miss_latency_hist_seqr::stdev    40.058009                       (Unspecified)
system.caches.RequestType.LD.miss_latency_hist_seqr |        6116     41.20%     41.20% |        7202     48.51%     89.71% |        1187      8.00%     97.71% |         167      1.12%     98.83% |         118      0.79%     99.63% |          45      0.30%     99.93% |           6      0.04%     99.97% |           4      0.03%    100.00% |           0      0.00%    100.00% |           0      0.00%    100.00% (Unspecified)
system.caches.RequestType.LD.miss_latency_hist_seqr::total        14845                       (Unspecified)
system.caches.RequestType.ST.latency_hist_seqr::bucket_size           64                       (Unspecified)
system.caches.RequestType.ST.latency_hist_seqr::max_bucket          639                       (Unspecified)
system.caches.RequestType.ST.latency_hist_seqr::samples     10484967                       (Unspecified)
system.caches.RequestType.ST.latency_hist_seqr::mean     1.169704                       (Unspecified)
system.caches.RequestType.ST.latency_hist_seqr::gmean     1.018686                       (Unspecified)
system.caches.RequestType.ST.latency_hist_seqr::stdev     3.919237                       (Unspecified)
system.caches.RequestType.ST.latency_hist_seqr |    10467695     99.84%     99.84% |       15778      0.15%     99.99% |        1129      0.01%    100.00% |         195      0.00%    100.00% |         113      0.00%    100.00% |          49      0.00%    100.00% |           4      0.00%    100.00% |           4      0.00%    100.00% |           0      0.00%    100.00% |           0      0.00%    100.00% (Unspecified)
system.caches.RequestType.ST.latency_hist_seqr::total     10484967                       (Unspecified)
system.caches.RequestType.ST.hit_latency_hist_seqr::bucket_size           16                       (Unspecified)
system.caches.RequestType.ST.hit_latency_hist_seqr::max_bucket          159                       (Unspecified)
system.caches.RequestType.ST.hit_latency_hist_seqr::samples     10466252                       (Unspecified)
system.caches.RequestType.ST.hit_latency_hist_seqr::mean     1.015368                       (Unspecified)
system.caches.RequestType.ST.hit_latency_hist_seqr::gmean     1.010687                       (Unspecified)
system.caches.RequestType.ST.hit_latency_hist_seqr::stdev     0.131145                       (Unspecified)
system.caches.RequestType.ST.hit_latency_hist_seqr |    10466246    100.00%    100.00% |           0      0.00%    100.00% |           2      0.00%    100.00% |           1      0.00%    100.00% |           2      0.00%    100.00% |           1      0.00%    100.00% |           0      0.00%    100.00% |           0      0.00%    100.00% |           0      0.00%    100.00% |           0      0.00%    100.00% (Unspecified)
system.caches.RequestType.ST.hit_latency_hist_seqr::total     10466252                       (Unspecified)
system.caches.RequestType.ST.miss_latency_hist_seqr::bucket_size           64                       (Unspecified)
system.caches.RequestType.ST.miss_latency_hist_seqr::max_bucket          639                       (Unspecified)
system.caches.RequestType.ST.miss_latency_hist_seqr::samples        18715                       (Unspecified)
system.caches.RequestType.ST.miss_latency_hist_seqr::mean    87.481539                       (Unspecified)
system.caches.RequestType.ST.miss_latency_hist_seqr::gmean    83.690316                       (Unspecified)
system.caches.RequestType.ST.miss_latency_hist_seqr::stdev    33.659645                       (Unspecified)
system.caches.RequestType.ST.miss_latency_hist_seqr |        1446      7.73%      7.73% |       15775     84.29%     92.02% |        1129      6.03%     98.05% |         195      1.04%     99.09% |         113      0.60%     99.70% |          49      0.26%     99.96% |           4      0.02%     99.98% |           4      0.02%    100.00% |           0      0.00%    100.00% |           0      0.00%    100.00% (Unspecified)
system.caches.RequestType.ST.miss_latency_hist_seqr::total        18715                       (Unspecified)
system.caches.RequestType.IFETCH.latency_hist_seqr::bucket_size           64                       (Unspecified)
system.caches.RequestType.IFETCH.latency_hist_seqr::max_bucket          639                       (Unspecified)
system.caches.RequestType.IFETCH.latency_hist_seqr::samples      8215695                       (Unspecified)
system.caches.RequestType.IFETCH.latency_hist_seqr::mean     1.018941                       (Unspecified)
system.caches.RequestType.IFETCH.latency_hist_seqr::gmean     1.001125                       (Unspecified)
system.caches.RequestType.IFETCH.latency_hist_seqr::stdev     1.316788                       (Unspecified)
system.caches.RequestType.IFETCH.latency_hist_seqr |     8214973     99.99%     99.99% |         533      0.01%    100.00% |         162      0.00%    100.00% |           5      0.00%    100.00% |          13      0.00%    100.00% |           8      0.00%    100.00% |           0      0.00%    100.00% |           1      0.00%    100.00% |           0      0.00%    100.00% |           0      0.00%    100.00% (Unspecified)
system.caches.RequestType.IFETCH.latency_hist_seqr::total      8215695                       (Unspecified)
system.caches.RequestType.IFETCH.hit_latency_hist_seqr::bucket_size            2                       (Unspecified)
system.caches.RequestType.IFETCH.hit_latency_hist_seqr::max_bucket           19                       (Unspecified)
system.caches.RequestType.IFETCH.hit_latency_hist_seqr::samples      8213488                       (Unspecified)
system.caches.RequestType.IFETCH.hit_latency_hist_seqr::mean     1.000002                       (Unspecified)
system.caches.RequestType.IFETCH.hit_latency_hist_seqr::gmean     1.000001                       (Unspecified)
system.caches.RequestType.IFETCH.hit_latency_hist_seqr::stdev     0.005152                       (Unspecified)
system.caches.RequestType.IFETCH.hit_latency_hist_seqr |     8213486    100.00%    100.00% |           0      0.00%    100.00% |           0      0.00%    100.00% |           0      0.00%    100.00% |           1      0.00%    100.00% |           0      0.00%    100.00% |           0      0.00%    100.00% |           1      0.00%    100.00% |           0      0.00%    100.00% |           0      0.00%    100.00% (Unspecified)
system.caches.RequestType.IFETCH.hit_latency_hist_seqr::total      8213488                       (Unspecified)
system.caches.RequestType.IFETCH.miss_latency_hist_seqr::bucket_size           64                       (Unspecified)
system.caches.RequestType.IFETCH.miss_latency_hist_seqr::max_bucket          639                       (Unspecified)
system.caches.RequestType.IFETCH.miss_latency_hist_seqr::samples         2207                       (Unspecified)
system.caches.RequestType.IFETCH.miss_latency_hist_seqr::mean    71.498867                       (Unspecified)
system.caches.RequestType.IFETCH.miss_latency_hist_seqr::gmean    65.482549                       (Unspecified)
system.caches.RequestType.IFETCH.miss_latency_hist_seqr::stdev    38.554983                       (Unspecified)
system.caches.RequestType.IFETCH.miss_latency_hist_seqr |        1485     67.29%     67.29% |         533     24.15%     91.44% |         162      7.34%     98.78% |           5      0.23%     99.00% |          13      0.59%     99.59% |           8      0.36%     99.95% |           0      0.00%     99.95% |           1      0.05%    100.00% |           0      0.00%    100.00% |           0      0.00%    100.00% (Unspecified)
system.caches.RequestType.IFETCH.miss_latency_hist_seqr::total         2207                       (Unspecified)
system.caches.RequestType.RMW_Read.latency_hist_seqr::bucket_size           64                       (Unspecified)
system.caches.RequestType.RMW_Read.latency_hist_seqr::max_bucket          639                       (Unspecified)
system.caches.RequestType.RMW_Read.latency_hist_seqr::samples       466269                       (Unspecified)
system.caches.RequestType.RMW_Read.latency_hist_seqr::mean     1.349054                       (Unspecified)
system.caches.RequestType.RMW_Read.latency_hist_seqr::gmean     1.215170                       (Unspecified)
system.caches.RequestType.RMW_Read.latency_hist_seqr::stdev     2.798751                       (Unspecified)
system.caches.RequestType.RMW_Read.latency_hist_seqr |      466047     99.95%     99.95% |         165      0.04%     99.99% |          46      0.01%    100.00% |           4      0.00%    100.00% |           4      0.00%    100.00% |           3      0.00%    100.00% |           0      0.00%    100.00% |           0      0.00%    100.00% |           0      0.00%    100.00% |           0      0.00%    100.00% (Unspecified)
system.caches.RequestType.RMW_Read.latency_hist_seqr::total       466269                       (Unspecified)
system.caches.RequestType.RMW_Read.hit_latency_hist_seqr::bucket_size           16                       (Unspecified)
system.caches.RequestType.RMW_Read.hit_latency_hist_seqr::max_bucket          159                       (Unspecified)
system.caches.RequestType.RMW_Read.hit_latency_hist_seqr::samples       465848                       (Unspecified)
system.caches.RequestType.RMW_Read.hit_latency_hist_seqr::mean     1.276474                       (Unspecified)
system.caches.RequestType.RMW_Read.hit_latency_hist_seqr::gmean     1.210655                       (Unspecified)
system.caches.RequestType.RMW_Read.hit_latency_hist_seqr::stdev     0.541190                       (Unspecified)
system.caches.RequestType.RMW_Read.hit_latency_hist_seqr |      465844    100.00%    100.00% |           1      0.00%    100.00% |           1      0.00%    100.00% |           0      0.00%    100.00% |           0      0.00%    100.00% |           0      0.00%    100.00% |           0      0.00%    100.00% |           0      0.00%    100.00% |           1      0.00%    100.00% |           1      0.00%    100.00% (Unspecified)
system.caches.RequestType.RMW_Read.hit_latency_hist_seqr::total       465848                       (Unspecified)
system.caches.RequestType.RMW_Read.miss_latency_hist_seqr::bucket_size           64                       (Unspecified)
system.caches.RequestType.RMW_Read.miss_latency_hist_seqr::max_bucket          639                       (Unspecified)
system.caches.RequestType.RMW_Read.miss_latency_hist_seqr::samples          421                       (Unspecified)
system.caches.RequestType.RMW_Read.miss_latency_hist_seqr::mean    81.660333                       (Unspecified)
system.caches.RequestType.RMW_Read.miss_latency_hist_seqr::gmean    74.756093                       (Unspecified)
system.caches.RequestType.RMW_Read.miss_latency_hist_seqr::stdev    43.588346                       (Unspecified)
system.caches.RequestType.RMW_Read.miss_latency_hist_seqr |         201     47.74%     47.74% |         165     39.19%     86.94% |          44     10.45%     97.39% |           4      0.95%     98.34% |           4      0.95%     99.29% |           3      0.71%    100.00% |           0      0.00%    100.00% |           0      0.00%    100.00% |           0      0.00%    100.00% |           0      0.00%    100.00% (Unspecified)
system.caches.RequestType.RMW_Read.miss_latency_hist_seqr::total          421                       (Unspecified)
system.caches.RequestTypeMachineType.LD.Directory.miss_type_mach_latency_hist_seqr::bucket_size           64                       (Unspecified)
system.caches.RequestTypeMachineType.LD.Directory.miss_type_mach_latency_hist_seqr::max_bucket          639                       (Unspecified)
system.caches.RequestTypeMachineType.LD.Directory.miss_type_mach_latency_hist_seqr::samples        14845                       (Unspecified)
system.caches.RequestTypeMachineType.LD.Directory.miss_type_mach_latency_hist_seqr::mean    80.608353                       (Unspecified)
system.caches.RequestTypeMachineType.LD.Directory.miss_type_mach_latency_hist_seqr::gmean    74.531599                       (Unspecified)
system.caches.RequestTypeMachineType.LD.Directory.miss_type_mach_latency_hist_seqr::stdev    40.058009                       (Unspecified)
system.caches.RequestTypeMachineType.LD.Directory.miss_type_mach_latency_hist_seqr |        6116     41.20%     41.20% |        7202     48.51%     89.71% |        1187      8.00%     97.71% |         167      1.12%     98.83% |         118      0.79%     99.63% |          45      0.30%     99.93% |           6      0.04%     99.97% |           4      0.03%    100.00% |           0      0.00%    100.00% |           0      0.00%    100.00% (Unspecified)
system.caches.RequestTypeMachineType.LD.Directory.miss_type_mach_latency_hist_seqr::total        14845                       (Unspecified)
system.caches.RequestTypeMachineType.ST.Directory.miss_type_mach_latency_hist_seqr::bucket_size           64                       (Unspecified)
system.caches.RequestTypeMachineType.ST.Directory.miss_type_mach_latency_hist_seqr::max_bucket          639                       (Unspecified)
system.caches.RequestTypeMachineType.ST.Directory.miss_type_mach_latency_hist_seqr::samples        18715                       (Unspecified)
system.caches.RequestTypeMachineType.ST.Directory.miss_type_mach_latency_hist_seqr::mean    87.481539                       (Unspecified)
system.caches.RequestTypeMachineType.ST.Directory.miss_type_mach_latency_hist_seqr::gmean    83.690316                       (Unspecified)
system.caches.RequestTypeMachineType.ST.Directory.miss_type_mach_latency_hist_seqr::stdev    33.659645                       (Unspecified)
system.caches.RequestTypeMachineType.ST.Directory.miss_type_mach_latency_hist_seqr |        1446      7.73%      7.73% |       15775     84.29%     92.02% |        1129      6.03%     98.05% |         195      1.04%     99.09% |         113      0.60%     99.70% |          49      0.26%     99.96% |           4      0.02%     99.98% |           4      0.02%    100.00% |           0      0.00%    100.00% |           0      0.00%    100.00% (Unspecified)
system.caches.RequestTypeMachineType.ST.Directory.miss_type_mach_latency_hist_seqr::total        18715                       (Unspecified)
system.caches.RequestTypeMachineType.IFETCH.Directory.miss_type_mach_latency_hist_seqr::bucket_size           64                       (Unspecified)
system.caches.RequestTypeMachineType.IFETCH.Directory.miss_type_mach_latency_hist_seqr::max_bucket          639                       (Unspecified)
system.caches.RequestTypeMachineType.IFETCH.Directory.miss_type_mach_latency_hist_seqr::samples         2207                       (Unspecified)
system.caches.RequestTypeMachineType.IFETCH.Directory.miss_type_mach_latency_hist_seqr::mean    71.498867                       (Unspecified)
system.caches.RequestTypeMachineType.IFETCH.Directory.miss_type_mach_latency_hist_seqr::gmean    65.482549                       (Unspecified)
system.caches.RequestTypeMachineType.IFETCH.Directory.miss_type_mach_latency_hist_seqr::stdev    38.554983                       (Unspecified)
system.caches.RequestTypeMachineType.IFETCH.Directory.miss_type_mach_latency_hist_seqr |        1485     67.29%     67.29% |         533     24.15%     91.44% |         162      7.34%     98.78% |           5      0.23%     99.00% |          13      0.59%     99.59% |           8      0.36%     99.95% |           0      0.00%     99.95% |           1      0.05%    100.00% |           0      0.00%    100.00% |           0      0.00%    100.00% (Unspecified)
system.caches.RequestTypeMachineType.IFETCH.Directory.miss_type_mach_latency_hist_seqr::total         2207                       (Unspecified)
system.caches.RequestTypeMachineType.RMW_Read.Directory.miss_type_mach_latency_hist_seqr::bucket_size           64                       (Unspecified)
system.caches.RequestTypeMachineType.RMW_Read.Directory.miss_type_mach_latency_hist_seqr::max_bucket          639                       (Unspecified)
system.caches.RequestTypeMachineType.RMW_Read.Directory.miss_type_mach_latency_hist_seqr::samples          421                       (Unspecified)
system.caches.RequestTypeMachineType.RMW_Read.Directory.miss_type_mach_latency_hist_seqr::mean    81.660333                       (Unspecified)
system.caches.RequestTypeMachineType.RMW_Read.Directory.miss_type_mach_latency_hist_seqr::gmean    74.756093                       (Unspecified)
system.caches.RequestTypeMachineType.RMW_Read.Directory.miss_type_mach_latency_hist_seqr::stdev    43.588346                       (Unspecified)
system.caches.RequestTypeMachineType.RMW_Read.Directory.miss_type_mach_latency_hist_seqr |         201     47.74%     47.74% |         165     39.19%     86.94% |          44     10.45%     97.39% |           4      0.95%     98.34% |           4      0.95%     99.29% |           3      0.71%    100.00% |           0      0.00%    100.00% |           0      0.00%    100.00% |           0      0.00%    100.00% |           0      0.00%    100.00% (Unspecified)
system.caches.RequestTypeMachineType.RMW_Read.Directory.miss_type_mach_latency_hist_seqr::total          421                       (Unspecified)
system.caches.controllers0.delayHistogram::samples        71864                       # delay_histogram (Unspecified)
system.caches.controllers0.delayHistogram::mean     0.030363                       # delay_histogram (Unspecified)
system.caches.controllers0.delayHistogram::stdev     0.428611                       # delay_histogram (Unspecified)
system.caches.controllers0.delayHistogram::0-1        71438     99.41%     99.41% # delay_histogram (Unspecified)
system.caches.controllers0.delayHistogram::2-3           92      0.13%     99.54% # delay_histogram (Unspecified)
system.caches.controllers0.delayHistogram::4-5           95      0.13%     99.67% # delay_histogram (Unspecified)
system.caches.controllers0.delayHistogram::6-7          156      0.22%     99.88% # delay_histogram (Unspecified)
system.caches.controllers0.delayHistogram::8-9           81      0.11%    100.00% # delay_histogram (Unspecified)
system.caches.controllers0.delayHistogram::16-17            1      0.00%    100.00% # delay_histogram (Unspecified)
system.caches.controllers0.delayHistogram::18-19            1      0.00%    100.00% # delay_histogram (Unspecified)
system.caches.controllers0.delayHistogram::total        71864                       # delay_histogram (Unspecified)
system.caches.controllers0.cacheMemory.m_demand_hits     28062137                       # Number of cache demand hits (Unspecified)
system.caches.controllers0.cacheMemory.m_demand_misses        36189                       # Number of cache demand misses (Unspecified)
system.caches.controllers0.cacheMemory.m_demand_accesses     28098326                       # Number of cache demand accesses (Unspecified)
system.caches.controllers0.forwardToCache.m_buf_msgs     0.000696                       # Average number of messages in buffer (Unspecified)
system.caches.controllers0.forwardToCache.m_stall_time  5000.463812                       # Average number of cycles messages are stalled in this MB (Unspecified)
system.caches.controllers0.mandatoryQueue.m_buf_msgs     0.548434                       # Average number of messages in buffer (Unspecified)
system.caches.controllers0.mandatoryQueue.m_stall_time  1000.012921                       # Average number of cycles messages are stalled in this MB (Unspecified)
system.caches.controllers0.power_state.pwrStateResidencyTicks::UNDEFINED  51234080000                       # Cumulative time (in ticks) in various power states (Tick)
system.caches.controllers0.requestFromCache.m_buf_msgs     0.002805                       # Average number of messages in buffer (Unspecified)
system.caches.controllers0.requestFromCache.m_stall_time  1999.999883                       # Average number of cycles messages are stalled in this MB (Unspecified)
system.caches.controllers0.responseToCache.m_buf_msgs     0.000706                       # Average number of messages in buffer (Unspecified)
system.caches.controllers0.responseToCache.m_stall_time  5000.035387                       # Average number of cycles messages are stalled in this MB (Unspecified)
system.caches.controllers1.forwardFromDir.m_buf_msgs     0.000696                       # Average number of messages in buffer (Unspecified)
system.caches.controllers1.forwardFromDir.m_stall_time   999.812957                       # Average number of cycles messages are stalled in this MB (Unspecified)
system.caches.controllers1.power_state.pwrStateResidencyTicks::UNDEFINED  51234080000                       # Cumulative time (in ticks) in various power states (Tick)
system.caches.controllers1.requestToDir.m_buf_msgs     0.001403                       # Average number of messages in buffer (Unspecified)
system.caches.controllers1.requestToDir.m_stall_time 10008.040312                       # Average number of cycles messages are stalled in this MB (Unspecified)
system.caches.controllers1.requestToMemory.m_buf_msgs     0.001403                       # Average number of messages in buffer (Unspecified)
system.caches.controllers1.requestToMemory.m_stall_time  1000.003826                       # Average number of cycles messages are stalled in this MB (Unspecified)
system.caches.controllers1.responseFromDir.m_buf_msgs     0.000706                       # Average number of messages in buffer (Unspecified)
system.caches.controllers1.responseFromDir.m_stall_time   999.998653                       # Average number of cycles messages are stalled in this MB (Unspecified)
system.caches.controllers1.responseFromMemory.m_buf_msgs     0.001763                       # Average number of messages in buffer (Unspecified)
system.caches.controllers1.responseFromMemory.m_stall_time   999.998673                       # Average number of cycles messages are stalled in this MB (Unspecified)
system.caches.network.msg_count.Control         72376                       (Unspecified)
system.caches.network.msg_byte.Control         579008                       (Unspecified)
system.caches.network.msg_count.Data            71353                       (Unspecified)
system.caches.network.msg_byte.Data           5137416                       (Unspecified)
system.caches.network.msg_count.Response_Data        72376                       (Unspecified)
system.caches.network.msg_byte.Response_Data      5211072                       (Unspecified)
system.caches.network.msg_count.Writeback_Control        71352                       (Unspecified)
system.caches.network.msg_byte.Writeback_Control       570816                       (Unspecified)
system.caches.network.int_link_buffers2.m_buf_msgs     0.001403                       # Average number of messages in buffer (Unspecified)
system.caches.network.int_link_buffers2.m_stall_time  8008.040898                       # Average number of cycles messages are stalled in this MB (Unspecified)
system.caches.network.int_link_buffers8.m_buf_msgs     0.000696                       # Average number of messages in buffer (Unspecified)
system.caches.network.int_link_buffers8.m_stall_time  3000.838173                       # Average number of cycles messages are stalled in this MB (Unspecified)
system.caches.network.int_link_buffers9.m_buf_msgs     0.000706                       # Average number of messages in buffer (Unspecified)
system.caches.network.int_link_buffers9.m_stall_time  3000.038353                       # Average number of cycles messages are stalled in this MB (Unspecified)
system.caches.network.power_state.pwrStateResidencyTicks::UNDEFINED  51234080000                       # Cumulative time (in ticks) in various power states (Tick)
system.caches.network.routers0.percent_links_utilized     0.350666                       (Unspecified)
system.caches.network.routers0.msg_count.Control::2        36188                       (Unspecified)
system.caches.network.routers0.msg_bytes.Control::2       289504                       (Unspecified)
system.caches.network.routers0.msg_count.Data::2        35677                       (Unspecified)
system.caches.network.routers0.msg_bytes.Data::2      2568744                       (Unspecified)
system.caches.network.routers0.msg_count.Response_Data::4        36188                       (Unspecified)
system.caches.network.routers0.msg_bytes.Response_Data::4      2605536                       (Unspecified)
system.caches.network.routers0.msg_count.Writeback_Control::3        35676                       (Unspecified)
system.caches.network.routers0.msg_bytes.Writeback_Control::3       285408                       (Unspecified)
system.caches.network.routers0.port_buffers3.m_buf_msgs     0.000696                       # Average number of messages in buffer (Unspecified)
system.caches.network.routers0.port_buffers3.m_stall_time  4000.651012                       # Average number of cycles messages are stalled in this MB (Unspecified)
system.caches.network.routers0.port_buffers4.m_buf_msgs     0.000706                       # Average number of messages in buffer (Unspecified)
system.caches.network.routers0.port_buffers4.m_stall_time  4000.036890                       # Average number of cycles messages are stalled in this MB (Unspecified)
system.caches.network.routers0.port_buffers7.m_buf_msgs     0.004578                       # Average number of messages in buffer (Unspecified)
system.caches.network.routers0.port_buffers7.m_stall_time  7008.041132                       # Average number of cycles messages are stalled in this MB (Unspecified)
system.caches.network.routers0.power_state.pwrStateResidencyTicks::UNDEFINED  51234080000                       # Cumulative time (in ticks) in various power states (Tick)
system.caches.network.routers0.throttle00.link_utilization     0.352664                       (Unspecified)
system.caches.network.routers0.throttle00.msg_count.Response_Data::4        36188                       (Unspecified)
system.caches.network.routers0.throttle00.msg_bytes.Response_Data::4      2605536                       (Unspecified)
system.caches.network.routers0.throttle00.msg_count.Writeback_Control::3        35676                       (Unspecified)
system.caches.network.routers0.throttle00.msg_bytes.Writeback_Control::3       285408                       (Unspecified)
system.caches.network.routers0.throttle01.link_utilization     0.348668                       (Unspecified)
system.caches.network.routers0.throttle01.msg_count.Control::2        36188                       (Unspecified)
system.caches.network.routers0.throttle01.msg_bytes.Control::2       289504                       (Unspecified)
system.caches.network.routers0.throttle01.msg_count.Data::2        35677                       (Unspecified)
system.caches.network.routers0.throttle01.msg_bytes.Data::2      2568744                       (Unspecified)
system.caches.network.routers1.percent_links_utilized     0.350665                       (Unspecified)
system.caches.network.routers1.msg_count.Control::2        36188                       (Unspecified)
system.caches.network.routers1.msg_bytes.Control::2       289504                       (Unspecified)
system.caches.network.routers1.msg_count.Data::2        35676                       (Unspecified)
system.caches.network.routers1.msg_bytes.Data::2      2568672                       (Unspecified)
system.caches.network.routers1.msg_count.Response_Data::4        36188                       (Unspecified)
system.caches.network.routers1.msg_bytes.Response_Data::4      2605536                       (Unspecified)
system.caches.network.routers1.msg_count.Writeback_Control::3        35676                       (Unspecified)
system.caches.network.routers1.msg_bytes.Writeback_Control::3       285408                       (Unspecified)
system.caches.network.routers1.port_buffers2.m_buf_msgs     0.001403                       # Average number of messages in buffer (Unspecified)
system.caches.network.routers1.port_buffers2.m_stall_time  9008.040625                       # Average number of cycles messages are stalled in this MB (Unspecified)
system.caches.network.routers1.port_buffers6.m_buf_msgs     0.000717                       # Average number of messages in buffer (Unspecified)
system.caches.network.routers1.port_buffers6.m_stall_time  2001.025294                       # Average number of cycles messages are stalled in this MB (Unspecified)
system.caches.network.routers1.port_buffers7.m_buf_msgs     0.000707                       # Average number of messages in buffer (Unspecified)
system.caches.network.routers1.port_buffers7.m_stall_time  2000.039778                       # Average number of cycles messages are stalled in this MB (Unspecified)
system.caches.network.routers1.power_state.pwrStateResidencyTicks::UNDEFINED  51234080000                       # Cumulative time (in ticks) in various power states (Tick)
system.caches.network.routers1.throttle00.link_utilization     0.348666                       (Unspecified)
system.caches.network.routers1.throttle00.msg_count.Control::2        36188                       (Unspecified)
system.caches.network.routers1.throttle00.msg_bytes.Control::2       289504                       (Unspecified)
system.caches.network.routers1.throttle00.msg_count.Data::2        35676                       (Unspecified)
system.caches.network.routers1.throttle00.msg_bytes.Data::2      2568672                       (Unspecified)
system.caches.network.routers1.throttle01.link_utilization     0.352664                       (Unspecified)
system.caches.network.routers1.throttle01.msg_count.Response_Data::4        36188                       (Unspecified)
system.caches.network.routers1.throttle01.msg_bytes.Response_Data::4      2605536                       (Unspecified)
system.caches.network.routers1.throttle01.msg_count.Writeback_Control::3        35676                       (Unspecified)
system.caches.network.routers1.throttle01.msg_bytes.Writeback_Control::3       285408                       (Unspecified)
system.caches.power_state.pwrStateResidencyTicks::UNDEFINED  51234080000                       # Cumulative time (in ticks) in various power states (Tick)
system.caches.sequencers.power_state.pwrStateResidencyTicks::UNDEFINED  51234080000                       # Cumulative time (in ticks) in various power states (Tick)
system.caches.sys_port_proxy.power_state.pwrStateResidencyTicks::UNDEFINED  51234080000                       # Cumulative time (in ticks) in various power states (Tick)
system.clk_domain.clock                          1000                       # Clock period in ticks (Tick)
system.clk_domain.voltage_domain.voltage            1                       # Voltage in Volts (Volt)
system.cpu.numCycles                         51234081                       # Number of cpu cycles simulated (Cycle)
system.cpu.numWorkItemsStarted                      0                       # Number of work items this cpu started (Count)
system.cpu.numWorkItemsCompleted                    0                       # Number of work items this cpu completed (Count)
system.cpu.instsAdded                        95178842                       # Number of instructions added to the IQ (excludes non-spec) (Count)
system.cpu.nonSpecInstsAdded                   917749                       # Number of non-speculative instructions added to the IQ (Count)
system.cpu.instsIssued                       92149847                       # Number of instructions issued (Count)
system.cpu.squashedInstsIssued                   2195                       # Number of squashed instructions issued (Count)
system.cpu.squashedInstsExamined             12894616                       # Number of squashed instructions iterated over during squash; mainly for profiling (Count)
system.cpu.squashedOperandsExamined          15340596                       # Number of squashed operands that are examined and possibly removed from graph (Count)
system.cpu.squashedNonSpecRemoved                 109                       # Number of squashed non-spec instructions that were removed (Count)
system.cpu.numIssuedDist::samples            51172452                       # Number of insts issued each cycle (Count)
system.cpu.numIssuedDist::mean               1.800771                       # Number of insts issued each cycle (Count)
system.cpu.numIssuedDist::stdev              2.043911                       # Number of insts issued each cycle (Count)
system.cpu.numIssuedDist::underflows                0      0.00%      0.00% # Number of insts issued each cycle (Count)
system.cpu.numIssuedDist::0                  20906862     40.86%     40.86% # Number of insts issued each cycle (Count)
system.cpu.numIssuedDist::1                   8352057     16.32%     57.18% # Number of insts issued each cycle (Count)
system.cpu.numIssuedDist::2                   5260754     10.28%     67.46% # Number of insts issued each cycle (Count)
system.cpu.numIssuedDist::3                   5688920     11.12%     78.57% # Number of insts issued each cycle (Count)
system.cpu.numIssuedDist::4                   3406772      6.66%     85.23% # Number of insts issued each cycle (Count)
system.cpu.numIssuedDist::5                   4002985      7.82%     93.05% # Number of insts issued each cycle (Count)
system.cpu.numIssuedDist::6                   2528088      4.94%     97.99% # Number of insts issued each cycle (Count)
system.cpu.numIssuedDist::7                    809131      1.58%     99.58% # Number of insts issued each cycle (Count)
system.cpu.numIssuedDist::8                    216883      0.42%    100.00% # Number of insts issued each cycle (Count)
system.cpu.numIssuedDist::overflows                 0      0.00%    100.00% # Number of insts issued each cycle (Count)
system.cpu.numIssuedDist::min_value                 0                       # Number of insts issued each cycle (Count)
system.cpu.numIssuedDist::max_value                 8                       # Number of insts issued each cycle (Count)
system.cpu.numIssuedDist::total              51172452                       # Number of insts issued each cycle (Count)
system.cpu.statFuBusy::No_OpClass                   0      0.00%      0.00% # attempts to use FU when none available (Count)
system.cpu.statFuBusy::IntAlu                   62229     10.91%     10.91% # attempts to use FU when none available (Count)
system.cpu.statFuBusy::IntMult                      0      0.00%     10.91% # attempts to use FU when none available (Count)
system.cpu.statFuBusy::IntDiv                       0      0.00%     10.91% # attempts to use FU when none available (Count)
system.cpu.statFuBusy::FloatAdd                     0      0.00%     10.91% # attempts to use FU when none available (Count)
system.cpu.statFuBusy::FloatCmp                     0      0.00%     10.91% # attempts to use FU when none available (Count)
system.cpu.statFuBusy::FloatCvt                     0      0.00%     10.91% # attempts to use FU when none available (Count)
system.cpu.statFuBusy::FloatMult                    0      0.00%     10.91% # attempts to use FU when none available (Count)
system.cpu.statFuBusy::FloatMultAcc                 0      0.00%     10.91% # attempts to use FU when none available (Count)
system.cpu.statFuBusy::FloatDiv                     0      0.00%     10.91% # attempts to use FU when none available (Count)
system.cpu.statFuBusy::FloatMisc                    0      0.00%     10.91% # attempts to use FU when none available (Count)
system.cpu.statFuBusy::FloatSqrt                    0      0.00%     10.91% # attempts to use FU when none available (Count)
system.cpu.statFuBusy::SimdAdd                      2      0.00%     10.91% # attempts to use FU when none available (Count)
system.cpu.statFuBusy::SimdAddAcc                   0      0.00%     10.91% # attempts to use FU when none available (Count)
system.cpu.statFuBusy::SimdAlu                     51      0.01%     10.92% # attempts to use FU when none available (Count)
system.cpu.statFuBusy::SimdCmp                      0      0.00%     10.92% # attempts to use FU when none available (Count)
system.cpu.statFuBusy::SimdCvt                    868      0.15%     11.08% # attempts to use FU when none available (Count)
system.cpu.statFuBusy::SimdMisc                     4      0.00%     11.08% # attempts to use FU when none available (Count)
system.cpu.statFuBusy::SimdMult                     0      0.00%     11.08% # attempts to use FU when none available (Count)
system.cpu.statFuBusy::SimdMultAcc                  0      0.00%     11.08% # attempts to use FU when none available (Count)
system.cpu.statFuBusy::SimdShift                   41      0.01%     11.08% # attempts to use FU when none available (Count)
system.cpu.statFuBusy::SimdShiftAcc                 0      0.00%     11.08% # attempts to use FU when none available (Count)
system.cpu.statFuBusy::SimdDiv                      0      0.00%     11.08% # attempts to use FU when none available (Count)
system.cpu.statFuBusy::SimdSqrt                     0      0.00%     11.08% # attempts to use FU when none available (Count)
system.cpu.statFuBusy::SimdFloatAdd                 0      0.00%     11.08% # attempts to use FU when none available (Count)
system.cpu.statFuBusy::SimdFloatAlu                 0      0.00%     11.08% # attempts to use FU when none available (Count)
system.cpu.statFuBusy::SimdFloatCmp                 0      0.00%     11.08% # attempts to use FU when none available (Count)
system.cpu.statFuBusy::SimdFloatCvt                 0      0.00%     11.08% # attempts to use FU when none available (Count)
system.cpu.statFuBusy::SimdFloatDiv                 0      0.00%     11.08% # attempts to use FU when none available (Count)
system.cpu.statFuBusy::SimdFloatMisc                0      0.00%     11.08% # attempts to use FU when none available (Count)
system.cpu.statFuBusy::SimdFloatMult                0      0.00%     11.08% # attempts to use FU when none available (Count)
system.cpu.statFuBusy::SimdFloatMultAcc             0      0.00%     11.08% # attempts to use FU when none available (Count)
system.cpu.statFuBusy::SimdFloatSqrt                0      0.00%     11.08% # attempts to use FU when none available (Count)
system.cpu.statFuBusy::SimdReduceAdd                0      0.00%     11.08% # attempts to use FU when none available (Count)
system.cpu.statFuBusy::SimdReduceAlu                0      0.00%     11.08% # attempts to use FU when none available (Count)
system.cpu.statFuBusy::SimdReduceCmp                0      0.00%     11.08% # attempts to use FU when none available (Count)
system.cpu.statFuBusy::SimdFloatReduceAdd            0      0.00%     11.08% # attempts to use FU when none available (Count)
system.cpu.statFuBusy::SimdFloatReduceCmp            0      0.00%     11.08% # attempts to use FU when none available (Count)
system.cpu.statFuBusy::SimdAes                      0      0.00%     11.08% # attempts to use FU when none available (Count)
system.cpu.statFuBusy::SimdAesMix                   0      0.00%     11.08% # attempts to use FU when none available (Count)
system.cpu.statFuBusy::SimdSha1Hash                 0      0.00%     11.08% # attempts to use FU when none available (Count)
system.cpu.statFuBusy::SimdSha1Hash2                0      0.00%     11.08% # attempts to use FU when none available (Count)
system.cpu.statFuBusy::SimdSha256Hash               0      0.00%     11.08% # attempts to use FU when none available (Count)
system.cpu.statFuBusy::SimdSha256Hash2              0      0.00%     11.08% # attempts to use FU when none available (Count)
system.cpu.statFuBusy::SimdShaSigma2                0      0.00%     11.08% # attempts to use FU when none available (Count)
system.cpu.statFuBusy::SimdShaSigma3                0      0.00%     11.08% # attempts to use FU when none available (Count)
system.cpu.statFuBusy::SimdPredAlu                  0      0.00%     11.08% # attempts to use FU when none available (Count)
system.cpu.statFuBusy::MemRead                 499806     87.66%     98.75% # attempts to use FU when none available (Count)
system.cpu.statFuBusy::MemWrite                  6762      1.19%     99.93% # attempts to use FU when none available (Count)
system.cpu.statFuBusy::FloatMemRead               210      0.04%     99.97% # attempts to use FU when none available (Count)
system.cpu.statFuBusy::FloatMemWrite              178      0.03%    100.00% # attempts to use FU when none available (Count)
system.cpu.statFuBusy::IprAccess                    0      0.00%    100.00% # attempts to use FU when none available (Count)
system.cpu.statFuBusy::InstPrefetch                 0      0.00%    100.00% # attempts to use FU when none available (Count)
system.cpu.statIssuedInstType_0::No_OpClass      1593863      1.73%      1.73% # Number of instructions issued per FU type, per thread (Count)
system.cpu.statIssuedInstType_0::IntAlu      53665896     58.24%     59.97% # Number of instructions issued per FU type, per thread (Count)
system.cpu.statIssuedInstType_0::IntMult         1912      0.00%     59.97% # Number of instructions issued per FU type, per thread (Count)
system.cpu.statIssuedInstType_0::IntDiv         37227      0.04%     60.01% # Number of instructions issued per FU type, per thread (Count)
system.cpu.statIssuedInstType_0::FloatAdd      1842240      2.00%     62.01% # Number of instructions issued per FU type, per thread (Count)
system.cpu.statIssuedInstType_0::FloatCmp            0      0.00%     62.01% # Number of instructions issued per FU type, per thread (Count)
system.cpu.statIssuedInstType_0::FloatCvt       262398      0.28%     62.29% # Number of instructions issued per FU type, per thread (Count)
system.cpu.statIssuedInstType_0::FloatMult       262144      0.28%     62.58% # Number of instructions issued per FU type, per thread (Count)
system.cpu.statIssuedInstType_0::FloatMultAcc            0      0.00%     62.58% # Number of instructions issued per FU type, per thread (Count)
system.cpu.statIssuedInstType_0::FloatDiv            0      0.00%     62.58% # Number of instructions issued per FU type, per thread (Count)
system.cpu.statIssuedInstType_0::FloatMisc            0      0.00%     62.58% # Number of instructions issued per FU type, per thread (Count)
system.cpu.statIssuedInstType_0::FloatSqrt            0      0.00%     62.58% # Number of instructions issued per FU type, per thread (Count)
system.cpu.statIssuedInstType_0::SimdAdd         7029      0.01%     62.59% # Number of instructions issued per FU type, per thread (Count)
system.cpu.statIssuedInstType_0::SimdAddAcc            0      0.00%     62.59% # Number of instructions issued per FU type, per thread (Count)
system.cpu.statIssuedInstType_0::SimdAlu       275334      0.30%     62.88% # Number of instructions issued per FU type, per thread (Count)
system.cpu.statIssuedInstType_0::SimdCmp            8      0.00%     62.88% # Number of instructions issued per FU type, per thread (Count)
system.cpu.statIssuedInstType_0::SimdCvt        14680      0.02%     62.90% # Number of instructions issued per FU type, per thread (Count)
system.cpu.statIssuedInstType_0::SimdMisc       406503      0.44%     63.34% # Number of instructions issued per FU type, per thread (Count)
system.cpu.statIssuedInstType_0::SimdMult            0      0.00%     63.34% # Number of instructions issued per FU type, per thread (Count)
system.cpu.statIssuedInstType_0::SimdMultAcc            0      0.00%     63.34% # Number of instructions issued per FU type, per thread (Count)
system.cpu.statIssuedInstType_0::SimdShift         1068      0.00%     63.34% # Number of instructions issued per FU type, per thread (Count)
system.cpu.statIssuedInstType_0::SimdShiftAcc            0      0.00%     63.34% # Number of instructions issued per FU type, per thread (Count)
system.cpu.statIssuedInstType_0::SimdDiv            0      0.00%     63.34% # Number of instructions issued per FU type, per thread (Count)
system.cpu.statIssuedInstType_0::SimdSqrt            0      0.00%     63.34% # Number of instructions issued per FU type, per thread (Count)
system.cpu.statIssuedInstType_0::SimdFloatAdd       524289      0.57%     63.91% # Number of instructions issued per FU type, per thread (Count)
system.cpu.statIssuedInstType_0::SimdFloatAlu            0      0.00%     63.91% # Number of instructions issued per FU type, per thread (Count)
system.cpu.statIssuedInstType_0::SimdFloatCmp            0      0.00%     63.91% # Number of instructions issued per FU type, per thread (Count)
system.cpu.statIssuedInstType_0::SimdFloatCvt       393262      0.43%     64.34% # Number of instructions issued per FU type, per thread (Count)
system.cpu.statIssuedInstType_0::SimdFloatDiv       131079      0.14%     64.48% # Number of instructions issued per FU type, per thread (Count)
system.cpu.statIssuedInstType_0::SimdFloatMisc            0      0.00%     64.48% # Number of instructions issued per FU type, per thread (Count)
system.cpu.statIssuedInstType_0::SimdFloatMult       393216      0.43%     64.91% # Number of instructions issued per FU type, per thread (Count)
system.cpu.statIssuedInstType_0::SimdFloatMultAcc            0      0.00%     64.91% # Number of instructions issued per FU type, per thread (Count)
system.cpu.statIssuedInstType_0::SimdFloatSqrt            0      0.00%     64.91% # Number of instructions issued per FU type, per thread (Count)
system.cpu.statIssuedInstType_0::SimdReduceAdd            0      0.00%     64.91% # Number of instructions issued per FU type, per thread (Count)
system.cpu.statIssuedInstType_0::SimdReduceAlu            0      0.00%     64.91% # Number of instructions issued per FU type, per thread (Count)
system.cpu.statIssuedInstType_0::SimdReduceCmp            0      0.00%     64.91% # Number of instructions issued per FU type, per thread (Count)
system.cpu.statIssuedInstType_0::SimdFloatReduceAdd            0      0.00%     64.91% # Number of instructions issued per FU type, per thread (Count)
system.cpu.statIssuedInstType_0::SimdFloatReduceCmp            0      0.00%     64.91% # Number of instructions issued per FU type, per thread (Count)
system.cpu.statIssuedInstType_0::SimdAes            0      0.00%     64.91% # Number of instructions issued per FU type, per thread (Count)
system.cpu.statIssuedInstType_0::SimdAesMix            0      0.00%     64.91% # Number of instructions issued per FU type, per thread (Count)
system.cpu.statIssuedInstType_0::SimdSha1Hash            0      0.00%     64.91% # Number of instructions issued per FU type, per thread (Count)
system.cpu.statIssuedInstType_0::SimdSha1Hash2            0      0.00%     64.91% # Number of instructions issued per FU type, per thread (Count)
system.cpu.statIssuedInstType_0::SimdSha256Hash            0      0.00%     64.91% # Number of instructions issued per FU type, per thread (Count)
system.cpu.statIssuedInstType_0::SimdSha256Hash2            0      0.00%     64.91% # Number of instructions issued per FU type, per thread (Count)
system.cpu.statIssuedInstType_0::SimdShaSigma2            0      0.00%     64.91% # Number of instructions issued per FU type, per thread (Count)
system.cpu.statIssuedInstType_0::SimdShaSigma3            0      0.00%     64.91% # Number of instructions issued per FU type, per thread (Count)
system.cpu.statIssuedInstType_0::SimdPredAlu            0      0.00%     64.91% # Number of instructions issued per FU type, per thread (Count)
system.cpu.statIssuedInstType_0::MemRead     19043423     20.67%     85.57% # Number of instructions issued per FU type, per thread (Count)
system.cpu.statIssuedInstType_0::MemWrite      9593322     10.41%     95.98% # Number of instructions issued per FU type, per thread (Count)
system.cpu.statIssuedInstType_0::FloatMemRead      2377833      2.58%     98.56% # Number of instructions issued per FU type, per thread (Count)
system.cpu.statIssuedInstType_0::FloatMemWrite      1323121      1.44%    100.00% # Number of instructions issued per FU type, per thread (Count)
system.cpu.statIssuedInstType_0::IprAccess            0      0.00%    100.00% # Number of instructions issued per FU type, per thread (Count)
system.cpu.statIssuedInstType_0::InstPrefetch            0      0.00%    100.00% # Number of instructions issued per FU type, per thread (Count)
system.cpu.statIssuedInstType_0::total       92149847                       # Number of instructions issued per FU type, per thread (Count)
system.cpu.issueRate                         1.798604                       # Inst issue rate ((Count/Cycle))
system.cpu.fuBusy                              570151                       # FU busy when requested (Count)
system.cpu.fuBusyRate                        0.006187                       # FU busy rate (busy events/executed inst) ((Count/Count))
system.cpu.intInstQueueReads                217510555                       # Number of integer instruction queue reads (Count)
system.cpu.intInstQueueWrites                99692067                       # Number of integer instruction queue writes (Count)
system.cpu.intInstQueueWakeupAccesses        82224901                       # Number of integer instruction queue wakeup accesses (Count)
system.cpu.fpInstQueueReads                  18533932                       # Number of floating instruction queue reads (Count)
system.cpu.fpInstQueueWrites                  9301942                       # Number of floating instruction queue writes (Count)
system.cpu.fpInstQueueWakeupAccesses          9263490                       # Number of floating instruction queue wakeup accesses (Count)
system.cpu.vecInstQueueReads                        0                       # Number of vector instruction queue reads (Count)
system.cpu.vecInstQueueWrites                       0                       # Number of vector instruction queue writes (Count)
system.cpu.vecInstQueueWakeupAccesses               0                       # Number of vector instruction queue wakeup accesses (Count)
system.cpu.intAluAccesses                    81858568                       # Number of integer alu accesses (Count)
system.cpu.fpAluAccesses                      9267567                       # Number of floating point alu accesses (Count)
system.cpu.vecAluAccesses                           0                       # Number of vector alu accesses (Count)
system.cpu.idleCycles                               0                       # Number of cycles IEW is idle (Cycle)
system.cpu.squashCycles                        149003                       # Number of cycles IEW is squashing (Cycle)
system.cpu.blockCycles                        2012140                       # Number of cycles IEW is blocking (Cycle)
system.cpu.unblockCycles                        23954                       # Number of cycles IEW is unblocking (Cycle)
system.cpu.dispatchedInsts                   96096591                       # Number of instructions dispatched to IQ (Count)
system.cpu.dispSquashedInsts                      803                       # Number of squashed instructions skipped by dispatch (Count)
system.cpu.dispLoadInsts                     22236260                       # Number of dispatched load instructions (Count)
system.cpu.dispStoreInsts                    11311043                       # Number of dispatched store instructions (Count)
system.cpu.dispNonSpecInsts                    917745                       # Number of dispatched non-speculative instructions (Count)
system.cpu.iqFullEvents                         10702                       # Number of times the IQ has become full, causing a stall (Count)
system.cpu.lsqFullEvents                         8867                       # Number of times the LSQ has become full, causing a stall (Count)
system.cpu.memOrderViolationEvents               3298                       # Number of memory order violations (Count)
system.cpu.predictedTakenIncorrect              72574                       # Number of branches that were predicted taken incorrectly (Count)
system.cpu.predictedNotTakenIncorrect           75454                       # Number of branches that were predicted not taken incorrectly (Count)
system.cpu.branchMispredicts                   148028                       # Number of branch mispredicts detected at execute (Count)
system.cpu.numInsts                          91682144                       # Number of executed instructions (Count)
system.cpu.numLoadInsts                      21300058                       # Number of load instructions executed (Count)
system.cpu.numSquashedInsts                    467698                       # Number of squashed instructions skipped in execute (Count)
system.cpu.numSwp                                   0                       # Number of swp insts executed (Count)
system.cpu.numNop                                   0                       # Number of nop insts executed (Count)
system.cpu.numRefs                           32076356                       # Number of memory reference insts executed (Count)
system.cpu.numBranches                        6891346                       # Number of branches executed (Count)
system.cpu.numStoreInsts                     10776298                       # Number of stores executed (Count)
system.cpu.numRate                           1.789476                       # Inst execution rate ((Count/Cycle))
system.cpu.instsToCommit                     91573155                       # Cumulative count of insts sent to commit (Count)
system.cpu.writebackCount                    91488391                       # Cumulative count of insts written-back (Count)
system.cpu.producerInst                      66176282                       # Number of instructions producing a value (Count)
system.cpu.consumerInst                     108676600                       # Number of instructions consuming a value (Count)
system.cpu.wbRate                            1.785694                       # Insts written-back per cycle ((Count/Cycle))
system.cpu.wbFanout                          0.608929                       # Average fanout of values written-back ((Count/Count))
system.cpu.timesIdled                            1488                       # Number of times that the entire CPU went into an idle state and unscheduled itself (Count)
system.cpu.idleCycles                           61629                       # Total number of cycles that the CPU has spent unscheduled due to idling (Cycle)
system.cpu.committedInsts                    46698355                       # Number of Instructions Simulated (Count)
system.cpu.committedOps                      83201955                       # Number of Ops (including micro ops) Simulated (Count)
system.cpu.cpi                               1.097128                       # CPI: Cycles Per Instruction ((Cycle/Count))
system.cpu.totalCpi                          1.097128                       # CPI: Total CPI of All Threads ((Cycle/Count))
system.cpu.ipc                               0.911471                       # IPC: Instructions Per Cycle ((Count/Cycle))
system.cpu.totalIpc                          0.911471                       # IPC: Total IPC of All Threads ((Count/Cycle))
system.cpu.intRegfileReads                  144618049                       # Number of integer regfile reads (Count)
system.cpu.intRegfileWrites                  64312875                       # Number of integer regfile writes (Count)
system.cpu.fpRegfileReads                     9169686                       # Number of floating regfile reads (Count)
system.cpu.fpRegfileWrites                    7409210                       # Number of floating regfile writes (Count)
system.cpu.ccRegfileReads                    19308876                       # number of cc regfile reads (Count)
system.cpu.ccRegfileWrites                   19679873                       # number of cc regfile writes (Count)
system.cpu.miscRegfileReads                  47011402                       # number of misc regfile reads (Count)
system.cpu.miscRegfileWrites                  1835143                       # number of misc regfile writes (Count)
system.cpu.MemDepUnit__0.insertedLoads       22236260                       # Number of loads inserted to the mem dependence unit. (Count)
system.cpu.MemDepUnit__0.insertedStores      11311043                       # Number of stores inserted to the mem dependence unit. (Count)
system.cpu.MemDepUnit__0.conflictingLoads      7572832                       # Number of conflicting loads. (Count)
system.cpu.MemDepUnit__0.conflictingStores      2203343                       # Number of conflicting stores. (Count)
system.cpu.MemDepUnit__1.insertedLoads              0                       # Number of loads inserted to the mem dependence unit. (Count)
system.cpu.MemDepUnit__1.insertedStores             0                       # Number of stores inserted to the mem dependence unit. (Count)
system.cpu.MemDepUnit__1.conflictingLoads            0                       # Number of conflicting loads. (Count)
system.cpu.MemDepUnit__1.conflictingStores            0                       # Number of conflicting stores. (Count)
system.cpu.MemDepUnit__2.insertedLoads              0                       # Number of loads inserted to the mem dependence unit. (Count)
system.cpu.MemDepUnit__2.insertedStores             0                       # Number of stores inserted to the mem dependence unit. (Count)
system.cpu.MemDepUnit__2.conflictingLoads            0                       # Number of conflicting loads. (Count)
system.cpu.MemDepUnit__2.conflictingStores            0                       # Number of conflicting stores. (Count)
system.cpu.MemDepUnit__3.insertedLoads              0                       # Number of loads inserted to the mem dependence unit. (Count)
system.cpu.MemDepUnit__3.insertedStores             0                       # Number of stores inserted to the mem dependence unit. (Count)
system.cpu.MemDepUnit__3.conflictingLoads            0                       # Number of conflicting loads. (Count)
system.cpu.MemDepUnit__3.conflictingStores            0                       # Number of conflicting stores. (Count)
system.cpu.branchPred.lookups                 7476930                       # Number of BP lookups (Count)
system.cpu.branchPred.condPredicted           2754898                       # Number of conditional branches predicted (Count)
system.cpu.branchPred.condIncorrect            146073                       # Number of conditional branches incorrect (Count)
system.cpu.branchPred.BTBLookups              4253465                       # Number of BTB lookups (Count)
system.cpu.branchPred.BTBHits                 4251298                       # Number of BTB hits (Count)
system.cpu.branchPred.BTBHitRatio            0.999491                       # BTB Hit Ratio (Ratio)
[...]
system.mem_ctrl.rdPerTurnAround::gmean      16.000392                       # Reads before turning the bus around for writes (Count)
system.mem_ctrl.rdPerTurnAround::stdev       0.389560                       # Reads before turning the bus around for writes (Count)
system.mem_ctrl.rdPerTurnAround::12                 1      0.18%      0.18% # Reads before turning the bus around for writes (Count)
system.mem_ctrl.rdPerTurnAround::13                 2      0.36%      0.53% # Reads before turning the bus around for writes (Count)
system.mem_ctrl.rdPerTurnAround::14                 3      0.53%      1.07% # Reads before turning the bus around for writes (Count)
system.mem_ctrl.rdPerTurnAround::15                 3      0.53%      1.60% # Reads before turning the bus around for writes (Count)
system.mem_ctrl.rdPerTurnAround::16               534     95.19%     96.79% # Reads before turning the bus around for writes (Count)
system.mem_ctrl.rdPerTurnAround::17                16      2.85%     99.64% # Reads before turning the bus around for writes (Count)
system.mem_ctrl.rdPerTurnAround::18                 1      0.18%     99.82% # Reads before turning the bus around for writes (Count)
system.mem_ctrl.rdPerTurnAround::20                 1      0.18%    100.00% # Reads before turning the bus around for writes (Count)
system.mem_ctrl.rdPerTurnAround::total            561                       # Reads before turning the bus around for writes (Count)
system.mem_ctrl.wrPerTurnAround::samples          562                       # Writes before turning the bus around for reads (Count)
system.mem_ctrl.wrPerTurnAround::mean       16.028470                       # Writes before turning the bus around for reads (Count)
system.mem_ctrl.wrPerTurnAround::gmean      16.026849                       # Writes before turning the bus around for reads (Count)
system.mem_ctrl.wrPerTurnAround::stdev       0.237127                       # Writes before turning the bus around for reads (Count)
system.mem_ctrl.wrPerTurnAround::16               554     98.58%     98.58% # Writes before turning the bus around for reads (Count)
system.mem_ctrl.wrPerTurnAround::18                 8      1.42%    100.00% # Writes before turning the bus around for reads (Count)
system.mem_ctrl.wrPerTurnAround::total            562                       # Writes before turning the bus around for reads (Count)
system.mem_ctrl.bytesReadWrQ                      768                       # Total number of bytes read from write queue (Byte)
system.mem_ctrl.bytesReadSys                   575616                       # Total read bytes from the system interface side (Byte)
system.mem_ctrl.bytesWrittenSys                575616                       # Total written bytes from the system interface side (Byte)
system.mem_ctrl.avgRdBWSys               758679228.37244368                       # Average system read bandwidth in Byte/s ((Byte/Second))
system.mem_ctrl.avgWrBWSys               758679228.37244368                       # Average system write bandwidth in Byte/s ((Byte/Second))
system.mem_ctrl.totGap                      758743000                       # Total gap between requests (Tick)
system.mem_ctrl.avgGap                       42180.51                       # Average gap between requests ((Tick/Count))
system.mem_ctrl.requestorReadBytes::caches.controllers1       574912                       # Per-requestor bytes read from memory (Byte)
system.mem_ctrl.requestorWriteBytes::caches.controllers1       575680                       # Per-requestor bytes write to memory (Byte)
system.mem_ctrl.requestorReadRate::caches.controllers1 757751335.164516568184                       # Per-requestor bytes read from memory rate ((Byte/Second))
system.mem_ctrl.requestorWriteRate::caches.controllers1 758763582.300437092781                       # Per-requestor bytes write to memory rate ((Byte/Second))
system.mem_ctrl.requestorReadAccesses::caches.controllers1         8994                       # Per-requestor read serviced memory accesses (Count)
system.mem_ctrl.requestorWriteAccesses::caches.controllers1         8994                       # Per-requestor write serviced memory accesses (Count)
system.mem_ctrl.requestorReadTotalLat::caches.controllers1    274193500                       # Per-requestor read total memory access latency (Tick)
system.mem_ctrl.requestorWriteTotalLat::caches.controllers1  18788275000                       # Per-requestor write total memory access latency (Tick)
system.mem_ctrl.requestorReadAvgLat::caches.controllers1     30486.27                       # Per-requestor read average memory access latency ((Tick/Count))
system.mem_ctrl.requestorWriteAvgLat::caches.controllers1   2088978.76                       # Per-requestor write average memory access latency ((Tick/Count))
system.mem_ctrl.dram.bytesRead::caches.controllers1       575680                       # Number of bytes read from this memory (Byte)
system.mem_ctrl.dram.bytesRead::total          575680                       # Number of bytes read from this memory (Byte)
system.mem_ctrl.dram.bytesWritten::caches.controllers1       575616                       # Number of bytes written to this memory (Byte)
system.mem_ctrl.dram.bytesWritten::total       575616                       # Number of bytes written to this memory (Byte)
system.mem_ctrl.dram.numReads::caches.controllers1         8995                       # Number of read requests responded to by this memory (Count)
system.mem_ctrl.dram.numReads::total             8995                       # Number of read requests responded to by this memory (Count)
system.mem_ctrl.dram.numWrites::caches.controllers1         8994                       # Number of write requests responded to by this memory (Count)
system.mem_ctrl.dram.numWrites::total            8994                       # Number of write requests responded to by this memory (Count)
system.mem_ctrl.dram.bwRead::caches.controllers1    758763582                       # Total read bandwidth from this memory ((Byte/Second))
system.mem_ctrl.dram.bwRead::total          758763582                       # Total read bandwidth from this memory ((Byte/Second))
system.mem_ctrl.dram.bwWrite::caches.controllers1    758679228                       # Write bandwidth from this memory ((Byte/Second))
system.mem_ctrl.dram.bwWrite::total         758679228                       # Write bandwidth from this memory ((Byte/Second))
system.mem_ctrl.dram.bwTotal::caches.controllers1   1517442811                       # Total bandwidth to/from this memory ((Byte/Second))
system.mem_ctrl.dram.bwTotal::total        1517442811                       # Total bandwidth to/from this memory ((Byte/Second))
system.mem_ctrl.dram.readBursts                  8983                       # Number of DRAM read bursts (Count)
system.mem_ctrl.dram.writeBursts                 8995                       # Number of DRAM write bursts (Count)
system.mem_ctrl.dram.perBankRdBursts::0           518                       # Per bank write bursts (Count)
system.mem_ctrl.dram.perBankRdBursts::1           542                       # Per bank write bursts (Count)
system.mem_ctrl.dram.perBankRdBursts::2           582                       # Per bank write bursts (Count)
system.mem_ctrl.dram.perBankRdBursts::3           584                       # Per bank write bursts (Count)
system.mem_ctrl.dram.perBankRdBursts::4           569                       # Per bank write bursts (Count)
system.mem_ctrl.dram.perBankRdBursts::5           547                       # Per bank write bursts (Count)
system.mem_ctrl.dram.perBankRdBursts::6           542                       # Per bank write bursts (Count)
system.mem_ctrl.dram.perBankRdBursts::7           613                       # Per bank write bursts (Count)
system.mem_ctrl.dram.perBankRdBursts::8           520                       # Per bank write bursts (Count)
system.mem_ctrl.dram.perBankRdBursts::9           573                       # Per bank write bursts (Count)
system.mem_ctrl.dram.perBankRdBursts::10          554                       # Per bank write bursts (Count)
system.mem_ctrl.dram.perBankRdBursts::11          453                       # Per bank write bursts (Count)
system.mem_ctrl.dram.perBankRdBursts::12          577                       # Per bank write bursts (Count)
system.mem_ctrl.dram.perBankRdBursts::13          646                       # Per bank write bursts (Count)
system.mem_ctrl.dram.perBankRdBursts::14          636                       # Per bank write bursts (Count)
system.mem_ctrl.dram.perBankRdBursts::15          527                       # Per bank write bursts (Count)
system.mem_ctrl.dram.perBankWrBursts::0           512                       # Per bank write bursts (Count)
system.mem_ctrl.dram.perBankWrBursts::1           515                       # Per bank write bursts (Count)
system.mem_ctrl.dram.perBankWrBursts::2           522                       # Per bank write bursts (Count)
system.mem_ctrl.dram.perBankWrBursts::3           551                       # Per bank write bursts (Count)
system.mem_ctrl.dram.perBankWrBursts::4           534                       # Per bank write bursts (Count)
system.mem_ctrl.dram.perBankWrBursts::5           526                       # Per bank write bursts (Count)
system.mem_ctrl.dram.perBankWrBursts::6           532                       # Per bank write bursts (Count)
system.mem_ctrl.dram.perBankWrBursts::7           567                       # Per bank write bursts (Count)
system.mem_ctrl.dram.perBankWrBursts::8           515                       # Per bank write bursts (Count)
system.mem_ctrl.dram.perBankWrBursts::9           557                       # Per bank write bursts (Count)
system.mem_ctrl.dram.perBankWrBursts::10          532                       # Per bank write bursts (Count)
system.mem_ctrl.dram.perBankWrBursts::11          532                       # Per bank write bursts (Count)
system.mem_ctrl.dram.perBankWrBursts::12          779                       # Per bank write bursts (Count)
system.mem_ctrl.dram.perBankWrBursts::13          661                       # Per bank write bursts (Count)
system.mem_ctrl.dram.perBankWrBursts::14          646                       # Per bank write bursts (Count)
system.mem_ctrl.dram.perBankWrBursts::15          514                       # Per bank write bursts (Count)
system.mem_ctrl.dram.totQLat                105762250                       # Total ticks spent queuing (Tick)
system.mem_ctrl.dram.totBusLat               44915000                       # Total ticks spent in databus transfers (Tick)
system.mem_ctrl.dram.totMemAccLat           274193500                       # Total ticks spent from burst creation until serviced by the DRAM (Tick)
system.mem_ctrl.dram.avgQLat                 11773.60                       # Average queueing delay per DRAM burst ((Tick/Count))
system.mem_ctrl.dram.avgBusLat                5000.00                       # Average bus latency per DRAM burst ((Tick/Count))
system.mem_ctrl.dram.avgMemAccLat            30523.60                       # Average memory access latency per DRAM burst ((Tick/Count))
system.mem_ctrl.dram.readRowHits                 8124                       # Number of row buffer hits during reads (Count)
system.mem_ctrl.dram.writeRowHits                8126                       # Number of row buffer hits during writes (Count)
system.mem_ctrl.dram.readRowHitRate             90.44                       # Row buffer hit rate for reads (Ratio)
system.mem_ctrl.dram.writeRowHitRate            90.34                       # Row buffer hit rate for writes (Ratio)
system.mem_ctrl.dram.bytesPerActivate::samples         1725                       # Bytes accessed per row activation (Byte)
system.mem_ctrl.dram.bytesPerActivate::mean   667.417971                       # Bytes accessed per row activation (Byte)
system.mem_ctrl.dram.bytesPerActivate::gmean   463.042898                       # Bytes accessed per row activation (Byte)
system.mem_ctrl.dram.bytesPerActivate::stdev   403.785435                       # Bytes accessed per row activation (Byte)
system.mem_ctrl.dram.bytesPerActivate::0-127          235     13.62%     13.62% # Bytes accessed per row activation (Byte)
system.mem_ctrl.dram.bytesPerActivate::128-255          245     14.20%     27.83% # Bytes accessed per row activation (Byte)
system.mem_ctrl.dram.bytesPerActivate::256-383           82      4.75%     32.58% # Bytes accessed per row activation (Byte)
system.mem_ctrl.dram.bytesPerActivate::384-511           89      5.16%     37.74% # Bytes accessed per row activation (Byte)
system.mem_ctrl.dram.bytesPerActivate::512-639           59      3.42%     41.16% # Bytes accessed per row activation (Byte)
system.mem_ctrl.dram.bytesPerActivate::640-767           63      3.65%     44.81% # Bytes accessed per row activation (Byte)
system.mem_ctrl.dram.bytesPerActivate::768-895           46      2.67%     47.48% # Bytes accessed per row activation (Byte)
system.mem_ctrl.dram.bytesPerActivate::896-1023           33      1.91%     49.39% # Bytes accessed per row activation (Byte)
system.mem_ctrl.dram.bytesPerActivate::1024-1151          873     50.61%    100.00% # Bytes accessed per row activation (Byte)
system.mem_ctrl.dram.bytesPerActivate::total         1725                       # Bytes accessed per row activation (Byte)
system.mem_ctrl.dram.bytesRead                 574912                       # Total number of bytes read from DRAM (Byte)
system.mem_ctrl.dram.bytesWritten              575680                       # Total number of bytes written to DRAM (Byte)
system.mem_ctrl.dram.avgRdBW               757.751335                       # Average DRAM read bandwidth in MiBytes/s ((Byte/Second))
system.mem_ctrl.dram.avgWrBW               758.763582                       # Average DRAM write bandwidth in MiBytes/s ((Byte/Second))
system.mem_ctrl.dram.peakBW                  12800.00                       # Theoretical peak bandwidth in MiByte/s ((Byte/Second))
system.mem_ctrl.dram.busUtil                    11.85                       # Data bus utilization in percentage (Ratio)
system.mem_ctrl.dram.busUtilRead                 5.92                       # Data bus utilization in percentage for reads (Ratio)
system.mem_ctrl.dram.busUtilWrite                5.93                       # Data bus utilization in percentage for writes (Ratio)
system.mem_ctrl.dram.pageHitRate                90.39                       # Row buffer hit rate, read and write combined (Ratio)
system.mem_ctrl.dram.power_state.pwrStateResidencyTicks::UNDEFINED    758708000                       # Cumulative time (in ticks) in various power states (Tick)
system.mem_ctrl.dram.rank0.actEnergy          5919060                       # Energy for activate commands per rank (pJ) (Joule)
system.mem_ctrl.dram.rank0.preEnergy          3138465                       # Energy for precharge commands per rank (pJ) (Joule)
system.mem_ctrl.dram.rank0.readEnergy        32108580                       # Energy for read commands per rank (pJ) (Joule)
system.mem_ctrl.dram.rank0.writeEnergy       22231980                       # Energy for write commands per rank (pJ) (Joule)
system.mem_ctrl.dram.rank0.refreshEnergy 60234720.000000                       # Energy for refresh commands per rank (pJ) (Joule)
system.mem_ctrl.dram.rank0.actBackEnergy    246011430                       # Energy for active background per rank (pJ) (Joule)
system.mem_ctrl.dram.rank0.preBackEnergy     84176160                       # Energy for precharge background per rank (pJ) (Joule)
system.mem_ctrl.dram.rank0.actPowerDownEnergy            0                       # Energy for active power-down per rank (pJ) (Joule)
system.mem_ctrl.dram.rank0.prePowerDownEnergy            0                       # Energy for precharge power-down per rank (pJ) (Joule)
system.mem_ctrl.dram.rank0.selfRefreshEnergy            0                       # Energy for self refresh per rank (pJ) (Joule)
system.mem_ctrl.dram.rank0.totalEnergy      453820395                       # Total energy per rank (pJ) (Joule)
system.mem_ctrl.dram.rank0.averagePower    598.148952                       # Core power per rank (mW) (Watt)
system.mem_ctrl.dram.rank0.totalIdleTime            0                       # Total Idle time Per DRAM Rank (Tick)
system.mem_ctrl.dram.rank0.pwrStateTime::IDLE    214733250                       # Time in different power states (Tick)
system.mem_ctrl.dram.rank0.pwrStateTime::REF     25480000                       # Time in different power states (Tick)
system.mem_ctrl.dram.rank0.pwrStateTime::SREF            0                       # Time in different power states (Tick)
system.mem_ctrl.dram.rank0.pwrStateTime::PRE_PDN            0                       # Time in different power states (Tick)
system.mem_ctrl.dram.rank0.pwrStateTime::ACT    518494750                       # Time in different power states (Tick)
system.mem_ctrl.dram.rank0.pwrStateTime::ACT_PDN            0                       # Time in different power states (Tick)
system.mem_ctrl.dram.rank1.actEnergy          6418860                       # Energy for activate commands per rank (pJ) (Joule)
system.mem_ctrl.dram.rank1.preEnergy          3407910                       # Energy for precharge commands per rank (pJ) (Joule)
system.mem_ctrl.dram.rank1.readEnergy        32030040                       # Energy for read commands per rank (pJ) (Joule)
system.mem_ctrl.dram.rank1.writeEnergy       24753240                       # Energy for write commands per rank (pJ) (Joule)
system.mem_ctrl.dram.rank1.refreshEnergy 60234720.000000                       # Energy for refresh commands per rank (pJ) (Joule)
system.mem_ctrl.dram.rank1.actBackEnergy    258834720                       # Energy for active background per rank (pJ) (Joule)
system.mem_ctrl.dram.rank1.preBackEnergy     73377600                       # Energy for precharge background per rank (pJ) (Joule)
system.mem_ctrl.dram.rank1.actPowerDownEnergy            0                       # Energy for active power-down per rank (pJ) (Joule)
system.mem_ctrl.dram.rank1.prePowerDownEnergy            0                       # Energy for precharge power-down per rank (pJ) (Joule)
system.mem_ctrl.dram.rank1.selfRefreshEnergy            0                       # Energy for self refresh per rank (pJ) (Joule)
system.mem_ctrl.dram.rank1.totalEnergy      459057090                       # Total energy per rank (pJ) (Joule)
system.mem_ctrl.dram.rank1.averagePower    605.051074                       # Core power per rank (mW) (Watt)
system.mem_ctrl.dram.rank1.totalIdleTime            0                       # Total Idle time Per DRAM Rank (Tick)
system.mem_ctrl.dram.rank1.pwrStateTime::IDLE    186979750                       # Time in different power states (Tick)
system.mem_ctrl.dram.rank1.pwrStateTime::REF     25480000                       # Time in different power states (Tick)
system.mem_ctrl.dram.rank1.pwrStateTime::SREF            0                       # Time in different power states (Tick)
system.mem_ctrl.dram.rank1.pwrStateTime::PRE_PDN            0                       # Time in different power states (Tick)
system.mem_ctrl.dram.rank1.pwrStateTime::ACT    546248250                       # Time in different power states (Tick)
system.mem_ctrl.dram.rank1.pwrStateTime::ACT_PDN            0                       # Time in different power states (Tick)
system.mem_ctrl.power_state.pwrStateResidencyTicks::UNDEFINED    758708000                       # Cumulative time (in ticks) in various power states (Tick)
system.workload.inst.arm                            0                       # number of arm instructions executed (Count)
system.workload.inst.quiesce                        0                       # number of quiesce instructions executed (Count)

---------- End Simulation Statistics   ----------
