
---------- Begin Simulation Statistics ----------
simSeconds                                   0.003146                       # Number of seconds simulated (Second)
simTicks                                   3145793000                       # Number of ticks simulated (Tick)
finalTick                                  5519269000                       # Number of ticks from beginning of simulation (restored from checkpoints and never reset) (Tick)
simFreq                                  1000000000000                       # The number of ticks per simulated second ((Tick/Second))
hostSeconds                                      9.88                       # Real time elapsed on the host (Second)
hostTickRate                                318406125                       # The number of ticks simulated per host second (ticks/s) ((Tick/Second))
hostMemory                                    9646236                       # Number of bytes of host memory used (Byte)
simInsts                                      6451886                       # Number of instructions simulated (Count)
simOps                                       12338249                       # Number of ops (including micro ops) simulated (Count)
hostInstRate                                   653031                       # Simulator instruction rate (inst/s) ((Count/Second))
hostOpRate                                    1248821                       # Simulator op (including micro ops) rate (op/s) ((Count/Second))
system.caches.delayHistogram::bucket_size            2                       # delay histogram for all message (Unspecified)
system.caches.delayHistogram::max_bucket           19                       # delay histogram for all message (Unspecified)
system.caches.delayHistogram::samples           44852                       # delay histogram for all message (Unspecified)
system.caches.delayHistogram::mean           0.051681                       # delay histogram for all message (Unspecified)
system.caches.delayHistogram::stdev          0.561648                       # delay histogram for all message (Unspecified)
system.caches.delayHistogram             |       44397     98.99%     98.99% |         100      0.22%     99.21% |         113      0.25%     99.46% |         153      0.34%     99.80% |          84      0.19%     99.99% |           0      0.00%     99.99% |           1      0.00%     99.99% |           1      0.00%     99.99% |           2      0.00%    100.00% |           1      0.00%    100.00% # delay histogram for all message (Unspecified)
system.caches.delayHistogram::total             44852                       # delay histogram for all message (Unspecified)
system.caches.m_outstandReqHistSeqr::bucket_size            1                       (Unspecified)
system.caches.m_outstandReqHistSeqr::max_bucket            9                       (Unspecified)
system.caches.m_outstandReqHistSeqr::samples      1048610                       (Unspecified)
system.caches.m_outstandReqHistSeqr::mean     1.000015                       (Unspecified)
system.caches.m_outstandReqHistSeqr::gmean     1.000011                       (Unspecified)
system.caches.m_outstandReqHistSeqr::stdev     0.003906                       (Unspecified)
system.caches.m_outstandReqHistSeqr      |           0      0.00%      0.00% |     1048594    100.00%    100.00% |          16      0.00%    100.00% |           0      0.00%    100.00% |           0      0.00%    100.00% |           0      0.00%    100.00% |           0      0.00%    100.00% |           0      0.00%    100.00% |           0      0.00%    100.00% |           0      0.00%    100.00% (Unspecified)
system.caches.m_outstandReqHistSeqr::total      1048610                       (Unspecified)
system.caches.m_latencyHistSeqr::bucket_size            4                       (Unspecified)
system.caches.m_latencyHistSeqr::max_bucket           39                       (Unspecified)
system.caches.m_latencyHistSeqr::samples      1048610                       (Unspecified)
system.caches.m_latencyHistSeqr::mean        1.000051                       (Unspecified)
system.caches.m_latencyHistSeqr::gmean       1.000006                       (Unspecified)
system.caches.m_latencyHistSeqr::stdev       0.037288                       (Unspecified)
system.caches.m_latencyHistSeqr          |     1048608    100.00%    100.00% |           0      0.00%    100.00% |           0      0.00%    100.00% |           0      0.00%    100.00% |           0      0.00%    100.00% |           0      0.00%    100.00% |           0      0.00%    100.00% |           2      0.00%    100.00% |           0      0.00%    100.00% |           0      0.00%    100.00% (Unspecified)
system.caches.m_latencyHistSeqr::total        1048610                       (Unspecified)
system.caches.m_hitLatencyHistSeqr::bucket_size            1                       (Unspecified)
system.caches.m_hitLatencyHistSeqr::max_bucket            9                       (Unspecified)
system.caches.m_hitLatencyHistSeqr::samples      1048608                       (Unspecified)
system.caches.m_hitLatencyHistSeqr::mean            1                       (Unspecified)
system.caches.m_hitLatencyHistSeqr::gmean            1                       (Unspecified)
system.caches.m_hitLatencyHistSeqr       |           0      0.00%      0.00% |     1048608    100.00%    100.00% |           0      0.00%    100.00% |           0      0.00%    100.00% |           0      0.00%    100.00% |           0      0.00%    100.00% |           0      0.00%    100.00% |           0      0.00%    100.00% |           0      0.00%    100.00% |           0      0.00%    100.00% (Unspecified)
system.caches.m_hitLatencyHistSeqr::total      1048608                       (Unspecified)
system.caches.m_missLatencyHistSeqr::bucket_size            4                       (Unspecified)
system.caches.m_missLatencyHistSeqr::max_bucket           39                       (Unspecified)
system.caches.m_missLatencyHistSeqr::samples            2                       (Unspecified)
system.caches.m_missLatencyHistSeqr::mean           28                       (Unspecified)
system.caches.m_missLatencyHistSeqr::gmean    28.000000                       (Unspecified)
system.caches.m_missLatencyHistSeqr      |           0      0.00%      0.00% |           0      0.00%      0.00% |           0      0.00%      0.00% |           0      0.00%      0.00% |           0      0.00%      0.00% |           0      0.00%      0.00% |           0      0.00%      0.00% |           2    100.00%    100.00% |           0      0.00%    100.00% |           0      0.00%    100.00% (Unspecified)
system.caches.m_missLatencyHistSeqr::total            2                       (Unspecified)
system.caches.delayVCHist.vnet_1::bucket_size            1                       # delay histogram for vnet_1 (Unspecified)
system.caches.delayVCHist.vnet_1::max_bucket            9                       # delay histogram for vnet_1 (Unspecified)
system.caches.delayVCHist.vnet_1::samples        22682                       # delay histogram for vnet_1 (Unspecified)
system.caches.delayVCHist.vnet_1::mean       0.003615                       # delay histogram for vnet_1 (Unspecified)
system.caches.delayVCHist.vnet_1::stdev      0.139867                       # delay histogram for vnet_1 (Unspecified)
system.caches.delayVCHist.vnet_1         |       22664     99.92%     99.92% |           0      0.00%     99.92% |           5      0.02%     99.94% |           0      0.00%     99.94% |           5      0.02%     99.96% |           0      0.00%     99.96% |           6      0.03%     99.99% |           0      0.00%     99.99% |           2      0.01%    100.00% |           0      0.00%    100.00% # delay histogram for vnet_1 (Unspecified)
system.caches.delayVCHist.vnet_1::total         22682                       # delay histogram for vnet_1 (Unspecified)
system.caches.delayVCHist.vnet_2::bucket_size            2                       # delay histogram for vnet_2 (Unspecified)
system.caches.delayVCHist.vnet_2::max_bucket           19                       # delay histogram for vnet_2 (Unspecified)
system.caches.delayVCHist.vnet_2::samples        22170                       # delay histogram for vnet_2 (Unspecified)
system.caches.delayVCHist.vnet_2::mean       0.100857                       # delay histogram for vnet_2 (Unspecified)
system.caches.delayVCHist.vnet_2::stdev      0.783199                       # delay histogram for vnet_2 (Unspecified)
system.caches.delayVCHist.vnet_2         |       21733     98.03%     98.03% |          95      0.43%     98.46% |         108      0.49%     98.94% |         147      0.66%     99.61% |          82      0.37%     99.98% |           0      0.00%     99.98% |           1      0.00%     99.98% |           1      0.00%     99.99% |           2      0.01%    100.00% |           1      0.00%    100.00% # delay histogram for vnet_2 (Unspecified)
system.caches.delayVCHist.vnet_2::total         22170                       # delay histogram for vnet_2 (Unspecified)
system.caches.L1Cache_Controller.Load         1518977      0.00%      0.00% (Unspecified)
system.caches.L1Cache_Controller.Ifetch        265588      0.00%      0.00% (Unspecified)
system.caches.L1Cache_Controller.Store         208274      0.00%      0.00% (Unspecified)
system.caches.L1Cache_Controller.Data           22682      0.00%      0.00% (Unspecified)
system.caches.L1Cache_Controller.Replacement        22170      0.00%      0.00% (Unspecified)
system.caches.L1Cache_Controller.Writeback_Ack        22170      0.00%      0.00% (Unspecified)
system.caches.L1Cache_Controller.I.Load         16584      0.00%      0.00% (Unspecified)
system.caches.L1Cache_Controller.I.Ifetch         3270      0.00%      0.00% (Unspecified)
system.caches.L1Cache_Controller.I.Store         2828      0.00%      0.00% (Unspecified)
system.caches.L1Cache_Controller.M.Load       1502393      0.00%      0.00% (Unspecified)
system.caches.L1Cache_Controller.M.Ifetch       262318      0.00%      0.00% (Unspecified)
system.caches.L1Cache_Controller.M.Store       205446      0.00%      0.00% (Unspecified)
system.caches.L1Cache_Controller.M.Replacement        22170      0.00%      0.00% (Unspecified)
system.caches.L1Cache_Controller.MI.Writeback_Ack        22170      0.00%      0.00% (Unspecified)
system.caches.L1Cache_Controller.IS.Data        19854      0.00%      0.00% (Unspecified)
system.caches.L1Cache_Controller.IM.Data         2828      0.00%      0.00% (Unspecified)
system.caches.Directory_Controller.GETX         22682      0.00%      0.00% (Unspecified)
system.caches.Directory_Controller.PUTX         22170      0.00%      0.00% (Unspecified)
system.caches.Directory_Controller.Memory_Data        22682      0.00%      0.00% (Unspecified)
system.caches.Directory_Controller.Memory_Ack        22170      0.00%      0.00% (Unspecified)
system.caches.Directory_Controller.I.GETX        22682      0.00%      0.00% (Unspecified)
system.caches.Directory_Controller.M.PUTX        22170      0.00%      0.00% (Unspecified)
system.caches.Directory_Controller.IM.Memory_Data        22682      0.00%      0.00% (Unspecified)
system.caches.Directory_Controller.MI.Memory_Ack        22170      0.00%      0.00% (Unspecified)
system.caches.MachineType.Directory.miss_mach_latency_hist_seqr::bucket_size            4                       (Unspecified)
system.caches.MachineType.Directory.miss_mach_latency_hist_seqr::max_bucket           39                       (Unspecified)
system.caches.MachineType.Directory.miss_mach_latency_hist_seqr::samples            2                       (Unspecified)
system.caches.MachineType.Directory.miss_mach_latency_hist_seqr::mean           28                       (Unspecified)
system.caches.MachineType.Directory.miss_mach_latency_hist_seqr::gmean    28.000000                       (Unspecified)
system.caches.MachineType.Directory.miss_mach_latency_hist_seqr |           0      0.00%      0.00% |           0      0.00%      0.00% |           0      0.00%      0.00% |           0      0.00%      0.00% |           0      0.00%      0.00% |           0      0.00%      0.00% |           0      0.00%      0.00% |           2    100.00%    100.00% |           0      0.00%    100.00% |           0      0.00%    100.00% (Unspecified)
system.caches.MachineType.Directory.miss_mach_latency_hist_seqr::total            2                       (Unspecified)
system.caches.MachineType.Directory.incomplete_times_seqr        22681                       (Unspecified)
system.caches.RequestType.LD.latency_hist_seqr::bucket_size            4                       (Unspecified)
system.caches.RequestType.LD.latency_hist_seqr::max_bucket           39                       (Unspecified)
system.caches.RequestType.LD.latency_hist_seqr::samples      1048583                       (Unspecified)
system.caches.RequestType.LD.latency_hist_seqr::mean     1.000026                       (Unspecified)
system.caches.RequestType.LD.latency_hist_seqr::gmean     1.000003                       (Unspecified)
system.caches.RequestType.LD.latency_hist_seqr::stdev     0.026367                       (Unspecified)
system.caches.RequestType.LD.latency_hist_seqr |     1048582    100.00%    100.00% |           0      0.00%    100.00% |           0      0.00%    100.00% |           0      0.00%    100.00% |           0      0.00%    100.00% |           0      0.00%    100.00% |           0      0.00%    100.00% |           1      0.00%    100.00% |           0      0.00%    100.00% |           0      0.00%    100.00% (Unspecified)
system.caches.RequestType.LD.latency_hist_seqr::total      1048583                       (Unspecified)
system.caches.RequestType.LD.hit_latency_hist_seqr::bucket_size            1                       (Unspecified)
system.caches.RequestType.LD.hit_latency_hist_seqr::max_bucket            9                       (Unspecified)
system.caches.RequestType.LD.hit_latency_hist_seqr::samples      1048582                       (Unspecified)
system.caches.RequestType.LD.hit_latency_hist_seqr::mean            1                       (Unspecified)
system.caches.RequestType.LD.hit_latency_hist_seqr::gmean            1                       (Unspecified)
system.caches.RequestType.LD.hit_latency_hist_seqr |           0      0.00%      0.00% |     1048582    100.00%    100.00% |           0      0.00%    100.00% |           0      0.00%    100.00% |           0      0.00%    100.00% |           0      0.00%    100.00% |           0      0.00%    100.00% |           0      0.00%    100.00% |           0      0.00%    100.00% |           0      0.00%    100.00% (Unspecified)
system.caches.RequestType.LD.hit_latency_hist_seqr::total      1048582                       (Unspecified)
system.caches.RequestType.LD.miss_latency_hist_seqr::bucket_size            4                       (Unspecified)
system.caches.RequestType.LD.miss_latency_hist_seqr::max_bucket           39                       (Unspecified)
system.caches.RequestType.LD.miss_latency_hist_seqr::samples            1                       (Unspecified)
system.caches.RequestType.LD.miss_latency_hist_seqr::mean           28                       (Unspecified)
system.caches.RequestType.LD.miss_latency_hist_seqr::gmean    28.000000                       (Unspecified)
system.caches.RequestType.LD.miss_latency_hist_seqr::stdev          nan                       (Unspecified)
system.caches.RequestType.LD.miss_latency_hist_seqr |           0      0.00%      0.00% |           0      0.00%      0.00% |           0      0.00%      0.00% |           0      0.00%      0.00% |           0      0.00%      0.00% |           0      0.00%      0.00% |           0      0.00%      0.00% |           1    100.00%    100.00% |           0      0.00%    100.00% |           0      0.00%    100.00% (Unspecified)
system.caches.RequestType.LD.miss_latency_hist_seqr::total            1                       (Unspecified)
system.caches.RequestType.ST.latency_hist_seqr::bucket_size            1                       (Unspecified)
system.caches.RequestType.ST.latency_hist_seqr::max_bucket            9                       (Unspecified)
system.caches.RequestType.ST.latency_hist_seqr::samples            1                       (Unspecified)
system.caches.RequestType.ST.latency_hist_seqr::mean            1                       (Unspecified)
system.caches.RequestType.ST.latency_hist_seqr::gmean            1                       (Unspecified)
system.caches.RequestType.ST.latency_hist_seqr::stdev          nan                       (Unspecified)
system.caches.RequestType.ST.latency_hist_seqr |           0      0.00%      0.00% |           1    100.00%    100.00% |           0      0.00%    100.00% |           0      0.00%    100.00% |           0      0.00%    100.00% |           0      0.00%    100.00% |           0      0.00%    100.00% |           0      0.00%    100.00% |           0      0.00%    100.00% |           0      0.00%    100.00% (Unspecified)
system.caches.RequestType.ST.latency_hist_seqr::total            1                       (Unspecified)
system.caches.RequestType.ST.hit_latency_hist_seqr::bucket_size            1                       (Unspecified)
system.caches.RequestType.ST.hit_latency_hist_seqr::max_bucket            9                       (Unspecified)
system.caches.RequestType.ST.hit_latency_hist_seqr::samples            1                       (Unspecified)
system.caches.RequestType.ST.hit_latency_hist_seqr::mean            1                       (Unspecified)
system.caches.RequestType.ST.hit_latency_hist_seqr::gmean            1                       (Unspecified)
system.caches.RequestType.ST.hit_latency_hist_seqr::stdev          nan                       (Unspecified)
system.caches.RequestType.ST.hit_latency_hist_seqr |           0      0.00%      0.00% |           1    100.00%    100.00% |           0      0.00%    100.00% |           0      0.00%    100.00% |           0      0.00%    100.00% |           0      0.00%    100.00% |           0      0.00%    100.00% |           0      0.00%    100.00% |           0      0.00%    100.00% |           0      0.00%    100.00% (Unspecified)
system.caches.RequestType.ST.hit_latency_hist_seqr::total            1                       (Unspecified)
system.caches.RequestType.IFETCH.latency_hist_seqr::bucket_size            4                       (Unspecified)
system.caches.RequestType.IFETCH.latency_hist_seqr::max_bucket           39                       (Unspecified)
system.caches.RequestType.IFETCH.latency_hist_seqr::samples           26                       (Unspecified)
system.caches.RequestType.IFETCH.latency_hist_seqr::mean     2.038462                       (Unspecified)
system.caches.RequestType.IFETCH.latency_hist_seqr::gmean     1.136737                       (Unspecified)
system.caches.RequestType.IFETCH.latency_hist_seqr::stdev     5.295136                       (Unspecified)
system.caches.RequestType.IFETCH.latency_hist_seqr |          25     96.15%     96.15% |           0      0.00%     96.15% |           0      0.00%     96.15% |           0      0.00%     96.15% |           0      0.00%     96.15% |           0      0.00%     96.15% |           0      0.00%     96.15% |           1      3.85%    100.00% |           0      0.00%    100.00% |           0      0.00%    100.00% (Unspecified)
system.caches.RequestType.IFETCH.latency_hist_seqr::total           26                       (Unspecified)
system.caches.RequestType.IFETCH.hit_latency_hist_seqr::bucket_size            1                       (Unspecified)
system.caches.RequestType.IFETCH.hit_latency_hist_seqr::max_bucket            9                       (Unspecified)
system.caches.RequestType.IFETCH.hit_latency_hist_seqr::samples           25                       (Unspecified)
system.caches.RequestType.IFETCH.hit_latency_hist_seqr::mean            1                       (Unspecified)
system.caches.RequestType.IFETCH.hit_latency_hist_seqr::gmean            1                       (Unspecified)
system.caches.RequestType.IFETCH.hit_latency_hist_seqr |           0      0.00%      0.00% |          25    100.00%    100.00% |           0      0.00%    100.00% |           0      0.00%    100.00% |           0      0.00%    100.00% |           0      0.00%    100.00% |           0      0.00%    100.00% |           0      0.00%    100.00% |           0      0.00%    100.00% |           0      0.00%    100.00% (Unspecified)
system.caches.RequestType.IFETCH.hit_latency_hist_seqr::total           25                       (Unspecified)
system.caches.RequestType.IFETCH.miss_latency_hist_seqr::bucket_size            4                       (Unspecified)
system.caches.RequestType.IFETCH.miss_latency_hist_seqr::max_bucket           39                       (Unspecified)
system.caches.RequestType.IFETCH.miss_latency_hist_seqr::samples            1                       (Unspecified)
system.caches.RequestType.IFETCH.miss_latency_hist_seqr::mean           28                       (Unspecified)
system.caches.RequestType.IFETCH.miss_latency_hist_seqr::gmean    28.000000                       (Unspecified)
system.caches.RequestType.IFETCH.miss_latency_hist_seqr::stdev          nan                       (Unspecified)
system.caches.RequestType.IFETCH.miss_latency_hist_seqr |           0      0.00%      0.00% |           0      0.00%      0.00% |           0      0.00%      0.00% |           0      0.00%      0.00% |           0      0.00%      0.00% |           0      0.00%      0.00% |           0      0.00%      0.00% |           1    100.00%    100.00% |           0      0.00%    100.00% |           0      0.00%    100.00% (Unspecified)
system.caches.RequestType.IFETCH.miss_latency_hist_seqr::total            1                       (Unspecified)
system.caches.RequestTypeMachineType.LD.Directory.miss_type_mach_latency_hist_seqr::bucket_size            4                       (Unspecified)
system.caches.RequestTypeMachineType.LD.Directory.miss_type_mach_latency_hist_seqr::max_bucket           39                       (Unspecified)
system.caches.RequestTypeMachineType.LD.Directory.miss_type_mach_latency_hist_seqr::samples            1                       (Unspecified)
system.caches.RequestTypeMachineType.LD.Directory.miss_type_mach_latency_hist_seqr::mean           28                       (Unspecified)
system.caches.RequestTypeMachineType.LD.Directory.miss_type_mach_latency_hist_seqr::gmean    28.000000                       (Unspecified)
system.caches.RequestTypeMachineType.LD.Directory.miss_type_mach_latency_hist_seqr::stdev          nan                       (Unspecified)
system.caches.RequestTypeMachineType.LD.Directory.miss_type_mach_latency_hist_seqr |           0      0.00%      0.00% |           0      0.00%      0.00% |           0      0.00%      0.00% |           0      0.00%      0.00% |           0      0.00%      0.00% |           0      0.00%      0.00% |           0      0.00%      0.00% |           1    100.00%    100.00% |           0      0.00%    100.00% |           0      0.00%    100.00% (Unspecified)
system.caches.RequestTypeMachineType.LD.Directory.miss_type_mach_latency_hist_seqr::total            1                       (Unspecified)
system.caches.RequestTypeMachineType.IFETCH.Directory.miss_type_mach_latency_hist_seqr::bucket_size            4                       (Unspecified)
system.caches.RequestTypeMachineType.IFETCH.Directory.miss_type_mach_latency_hist_seqr::max_bucket           39                       (Unspecified)
system.caches.RequestTypeMachineType.IFETCH.Directory.miss_type_mach_latency_hist_seqr::samples            1                       (Unspecified)
system.caches.RequestTypeMachineType.IFETCH.Directory.miss_type_mach_latency_hist_seqr::mean           28                       (Unspecified)
system.caches.RequestTypeMachineType.IFETCH.Directory.miss_type_mach_latency_hist_seqr::gmean    28.000000                       (Unspecified)
system.caches.RequestTypeMachineType.IFETCH.Directory.miss_type_mach_latency_hist_seqr::stdev          nan                       (Unspecified)
system.caches.RequestTypeMachineType.IFETCH.Directory.miss_type_mach_latency_hist_seqr |           0      0.00%      0.00% |           0      0.00%      0.00% |           0      0.00%      0.00% |           0      0.00%      0.00% |           0      0.00%      0.00% |           0      0.00%      0.00% |           0      0.00%      0.00% |           1    100.00%    100.00% |           0      0.00%    100.00% |           0      0.00%    100.00% (Unspecified)
system.caches.RequestTypeMachineType.IFETCH.Directory.miss_type_mach_latency_hist_seqr::total            1                       (Unspecified)
system.caches.controllers0.delayHistogram::samples        44852                       # delay_histogram (Unspecified)
system.caches.controllers0.delayHistogram::mean     0.051681                       # delay_histogram (Unspecified)
system.caches.controllers0.delayHistogram::stdev     0.561648                       # delay_histogram (Unspecified)
system.caches.controllers0.delayHistogram::0-1        44397     98.99%     98.99% # delay_histogram (Unspecified)
system.caches.controllers0.delayHistogram::2-3          100      0.22%     99.21% # delay_histogram (Unspecified)
system.caches.controllers0.delayHistogram::4-5          113      0.25%     99.46% # delay_histogram (Unspecified)
system.caches.controllers0.delayHistogram::6-7          153      0.34%     99.80% # delay_histogram (Unspecified)
system.caches.controllers0.delayHistogram::8-9           84      0.19%     99.99% # delay_histogram (Unspecified)
system.caches.controllers0.delayHistogram::12-13            1      0.00%     99.99% # delay_histogram (Unspecified)
system.caches.controllers0.delayHistogram::14-15            1      0.00%     99.99% # delay_histogram (Unspecified)
system.caches.controllers0.delayHistogram::16-17            2      0.00%    100.00% # delay_histogram (Unspecified)
system.caches.controllers0.delayHistogram::18-19            1      0.00%    100.00% # delay_histogram (Unspecified)
system.caches.controllers0.delayHistogram::total        44852                       # delay_histogram (Unspecified)
system.caches.controllers0.cacheMemory.m_demand_hits      1970157                       # Number of cache demand hits (Unspecified)
system.caches.controllers0.cacheMemory.m_demand_misses        22682                       # Number of cache demand misses (Unspecified)
system.caches.controllers0.cacheMemory.m_demand_accesses      1992839                       # Number of cache demand accesses (Unspecified)
system.caches.controllers0.forwardToCache.m_buf_msgs     0.004017                       # Average number of messages in buffer (Unspecified)
system.caches.controllers0.forwardToCache.m_stall_time  5006.422590                       # Average number of cycles messages are stalled in this MB (Unspecified)
system.caches.controllers0.mandatoryQueue.m_buf_msgs     0.365810                       # Average number of messages in buffer (Unspecified)
system.caches.controllers0.mandatoryQueue.m_stall_time  1014.567146                       # Average number of cycles messages are stalled in this MB (Unspecified)
system.caches.controllers0.power_state.pwrStateResidencyTicks::UNDEFINED   5519269000                       # Cumulative time (in ticks) in various power states (Tick)
system.caches.controllers0.requestFromCache.m_buf_msgs     0.016253                       # Average number of messages in buffer (Unspecified)
system.caches.controllers0.requestFromCache.m_stall_time  1999.998913                       # Average number of cycles messages are stalled in this MB (Unspecified)
system.caches.controllers0.responseToCache.m_buf_msgs     0.004110                       # Average number of messages in buffer (Unspecified)
system.caches.controllers0.responseToCache.m_stall_time  5000.298771                       # Average number of cycles messages are stalled in this MB (Unspecified)
system.caches.controllers1.forwardFromDir.m_buf_msgs     0.004017                       # Average number of messages in buffer (Unspecified)
system.caches.controllers1.forwardFromDir.m_stall_time   998.301405                       # Average number of cycles messages are stalled in this MB (Unspecified)
system.caches.controllers1.power_state.pwrStateResidencyTicks::UNDEFINED   5519269000                       # Cumulative time (in ticks) in various power states (Tick)
system.caches.controllers1.requestToDir.m_buf_msgs     0.008126                       # Average number of messages in buffer (Unspecified)
system.caches.controllers1.requestToDir.m_stall_time 10141.669123                       # Average number of cycles messages are stalled in this MB (Unspecified)
system.caches.controllers1.requestToMemory.m_buf_msgs     0.008128                       # Average number of messages in buffer (Unspecified)
system.caches.controllers1.requestToMemory.m_stall_time  1000.027540                       # Average number of cycles messages are stalled in this MB (Unspecified)
system.caches.controllers1.responseFromDir.m_buf_msgs     0.004110                       # Average number of messages in buffer (Unspecified)
system.caches.controllers1.responseFromDir.m_stall_time   999.987498                       # Average number of cycles messages are stalled in this MB (Unspecified)
system.caches.controllers1.responseFromMemory.m_buf_msgs     0.009831                       # Average number of messages in buffer (Unspecified)
system.caches.controllers1.responseFromMemory.m_stall_time   999.987680                       # Average number of cycles messages are stalled in this MB (Unspecified)
system.caches.network.msg_count.Control         45364                       (Unspecified)
system.caches.network.msg_byte.Control         362912                       (Unspecified)
system.caches.network.msg_count.Data            44340                       (Unspecified)
system.caches.network.msg_byte.Data           3192480                       (Unspecified)
system.caches.network.msg_count.Response_Data        45364                       (Unspecified)
system.caches.network.msg_byte.Response_Data      3266208                       (Unspecified)
system.caches.network.msg_count.Writeback_Control        44340                       (Unspecified)
system.caches.network.msg_byte.Writeback_Control       354720                       (Unspecified)
system.caches.network.int_link_buffers2.m_buf_msgs     0.000001                       # Average number of messages in buffer (Unspecified)
system.caches.network.int_link_buffers2.m_stall_time  7999.989828                       # Average number of cycles messages are stalled in this MB (Unspecified)
system.caches.network.int_link_buffers8.m_buf_msgs     0.000001                       # Average number of messages in buffer (Unspecified)
system.caches.network.int_link_buffers8.m_stall_time         3000                       # Average number of cycles messages are stalled in this MB (Unspecified)
system.caches.network.int_link_buffers9.m_buf_msgs     0.000001                       # Average number of messages in buffer (Unspecified)
system.caches.network.int_link_buffers9.m_stall_time         3000                       # Average number of cycles messages are stalled in this MB (Unspecified)
system.caches.network.power_state.pwrStateResidencyTicks::UNDEFINED   5519269000                       # Cumulative time (in ticks) in various power states (Tick)
system.caches.network.routers0.percent_links_utilized     0.000318                       (Unspecified)
system.caches.network.routers0.msg_count.Control::2        22682                       (Unspecified)
system.caches.network.routers0.msg_bytes.Control::2       181456                       (Unspecified)
system.caches.network.routers0.msg_count.Data::2        22170                       (Unspecified)
system.caches.network.routers0.msg_bytes.Data::2      1596240                       (Unspecified)
system.caches.network.routers0.msg_count.Response_Data::4        22682                       (Unspecified)
system.caches.network.routers0.msg_bytes.Response_Data::4      1633104                       (Unspecified)
system.caches.network.routers0.msg_count.Writeback_Control::3        22170                       (Unspecified)
system.caches.network.routers0.msg_bytes.Writeback_Control::3       177360                       (Unspecified)
system.caches.network.routers0.port_buffers3.m_buf_msgs     0.004017                       # Average number of messages in buffer (Unspecified)
system.caches.network.routers0.port_buffers3.m_stall_time  4008.122634                       # Average number of cycles messages are stalled in this MB (Unspecified)
system.caches.network.routers0.port_buffers4.m_buf_msgs     0.004110                       # Average number of messages in buffer (Unspecified)
system.caches.network.routers0.port_buffers4.m_stall_time  4000.312723                       # Average number of cycles messages are stalled in this MB (Unspecified)
system.caches.network.routers0.port_buffers7.m_buf_msgs     0.028299                       # Average number of messages in buffer (Unspecified)
system.caches.network.routers0.port_buffers7.m_stall_time  7141.676733                       # Average number of cycles messages are stalled in this MB (Unspecified)
system.caches.network.routers0.power_state.pwrStateResidencyTicks::UNDEFINED   5519269000                       # Cumulative time (in ticks) in various power states (Tick)
system.caches.network.routers0.throttle00.link_utilization     0.000318                       (Unspecified)
system.caches.network.routers0.throttle00.msg_count.Response_Data::4        22682                       (Unspecified)
system.caches.network.routers0.throttle00.msg_bytes.Response_Data::4      1633104                       (Unspecified)
system.caches.network.routers0.throttle00.msg_count.Writeback_Control::3        22170                       (Unspecified)
system.caches.network.routers0.throttle00.msg_bytes.Writeback_Control::3       177360                       (Unspecified)
system.caches.network.routers0.throttle01.link_utilization     0.000318                       (Unspecified)
system.caches.network.routers0.throttle01.msg_count.Control::2        22682                       (Unspecified)
system.caches.network.routers0.throttle01.msg_bytes.Control::2       181456                       (Unspecified)
system.caches.network.routers0.throttle01.msg_count.Data::2        22170                       (Unspecified)
system.caches.network.routers0.throttle01.msg_bytes.Data::2      1596240                       (Unspecified)
system.caches.network.routers1.percent_links_utilized     0.000318                       (Unspecified)
system.caches.network.routers1.msg_count.Control::2        22682                       (Unspecified)
system.caches.network.routers1.msg_bytes.Control::2       181456                       (Unspecified)
system.caches.network.routers1.msg_count.Data::2        22170                       (Unspecified)
system.caches.network.routers1.msg_bytes.Data::2      1596240                       (Unspecified)
system.caches.network.routers1.msg_count.Response_Data::4        22682                       (Unspecified)
system.caches.network.routers1.msg_bytes.Response_Data::4      1633104                       (Unspecified)
system.caches.network.routers1.msg_count.Writeback_Control::3        22170                       (Unspecified)
system.caches.network.routers1.msg_bytes.Writeback_Control::3       177360                       (Unspecified)
system.caches.network.routers1.port_buffers2.m_buf_msgs     0.008126                       # Average number of messages in buffer (Unspecified)
system.caches.network.routers1.port_buffers2.m_stall_time  9141.672022                       # Average number of cycles messages are stalled in this MB (Unspecified)
system.caches.network.routers1.port_buffers6.m_buf_msgs     0.004219                       # Average number of messages in buffer (Unspecified)
system.caches.network.routers1.port_buffers6.m_stall_time  2011.521634                       # Average number of cycles messages are stalled in this MB (Unspecified)
system.caches.network.routers1.port_buffers7.m_buf_msgs     0.004117                       # Average number of messages in buffer (Unspecified)
system.caches.network.routers1.port_buffers7.m_stall_time  2000.339538                       # Average number of cycles messages are stalled in this MB (Unspecified)
system.caches.network.routers1.power_state.pwrStateResidencyTicks::UNDEFINED   5519269000                       # Cumulative time (in ticks) in various power states (Tick)
system.caches.network.routers1.throttle00.link_utilization     0.000318                       (Unspecified)
system.caches.network.routers1.throttle00.msg_count.Control::2        22682                       (Unspecified)
system.caches.network.routers1.throttle00.msg_bytes.Control::2       181456                       (Unspecified)
system.caches.network.routers1.throttle00.msg_count.Data::2        22170                       (Unspecified)
system.caches.network.routers1.throttle00.msg_bytes.Data::2      1596240                       (Unspecified)
system.caches.network.routers1.throttle01.link_utilization     0.000318                       (Unspecified)
system.caches.network.routers1.throttle01.msg_count.Response_Data::4        22682                       (Unspecified)
system.caches.network.routers1.throttle01.msg_bytes.Response_Data::4      1633104                       (Unspecified)
system.caches.network.routers1.throttle01.msg_count.Writeback_Control::3        22170                       (Unspecified)
system.caches.network.routers1.throttle01.msg_bytes.Writeback_Control::3       177360                       (Unspecified)
system.caches.power_state.pwrStateResidencyTicks::UNDEFINED   5519269000                       # Cumulative time (in ticks) in various power states (Tick)
system.caches.sequencers.power_state.pwrStateResidencyTicks::UNDEFINED   5519269000                       # Cumulative time (in ticks) in various power states (Tick)
system.caches.sys_port_proxy.power_state.pwrStateResidencyTicks::UNDEFINED   5519269000                       # Cumulative time (in ticks) in various power states (Tick)
system.clk_domain.clock                          1000                       # Clock period in ticks (Tick)
system.clk_domain.voltage_domain.voltage            1                       # Voltage in Volts (Volt)
system.cpu.numCycles                          3145793                       # Number of cpu cycles simulated (Cycle)
system.cpu.numWorkItemsStarted                      0                       # Number of work items this cpu started (Count)
system.cpu.numWorkItemsCompleted                    0                       # Number of work items this cpu completed (Count)
system.cpu.instsAdded                         8388770                       # Number of instructions added to the IQ (excludes non-spec) (Count)
system.cpu.nonSpecInstsAdded                        3                       # Number of non-speculative instructions added to the IQ (Count)
system.cpu.instsIssued                        8388744                       # Number of instructions issued (Count)
system.cpu.squashedInstsExamined                  107                       # Number of squashed instructions iterated over during squash; mainly for profiling (Count)
system.cpu.squashedOperandsExamined                97                       # Number of squashed operands that are examined and possibly removed from graph (Count)
system.cpu.squashedNonSpecRemoved                   2                       # Number of squashed non-spec instructions that were removed (Count)
system.cpu.numIssuedDist::samples             3145793                       # Number of insts issued each cycle (Count)
system.cpu.numIssuedDist::mean               2.666655                       # Number of insts issued each cycle (Count)
system.cpu.numIssuedDist::stdev              1.333424                       # Number of insts issued each cycle (Count)
system.cpu.numIssuedDist::underflows                0      0.00%      0.00% # Number of insts issued each cycle (Count)
system.cpu.numIssuedDist::0                        62      0.00%      0.00% # Number of insts issued each cycle (Count)
system.cpu.numIssuedDist::1                    699052     22.22%     22.22% # Number of insts issued each cycle (Count)
system.cpu.numIssuedDist::2                   1048551     33.33%     55.56% # Number of insts issued each cycle (Count)
system.cpu.numIssuedDist::3                    349528     11.11%     66.67% # Number of insts issued each cycle (Count)
system.cpu.numIssuedDist::4                    699038     22.22%     88.89% # Number of insts issued each cycle (Count)
system.cpu.numIssuedDist::5                    349524     11.11%    100.00% # Number of insts issued each cycle (Count)
system.cpu.numIssuedDist::6                        32      0.00%    100.00% # Number of insts issued each cycle (Count)
system.cpu.numIssuedDist::7                         6      0.00%    100.00% # Number of insts issued each cycle (Count)
system.cpu.numIssuedDist::8                         0      0.00%    100.00% # Number of insts issued each cycle (Count)
system.cpu.numIssuedDist::overflows                 0      0.00%    100.00% # Number of insts issued each cycle (Count)
system.cpu.numIssuedDist::min_value                 0                       # Number of insts issued each cycle (Count)
system.cpu.numIssuedDist::max_value                 7                       # Number of insts issued each cycle (Count)
system.cpu.numIssuedDist::total               3145793                       # Number of insts issued each cycle (Count)
system.cpu.statFuBusy::No_OpClass                   0      0.00%      0.00% # attempts to use FU when none available (Count)
system.cpu.statFuBusy::IntAlu                      25    100.00%    100.00% # attempts to use FU when none available (Count)
system.cpu.statFuBusy::IntMult                      0      0.00%    100.00% # attempts to use FU when none available (Count)
system.cpu.statFuBusy::IntDiv                       0      0.00%    100.00% # attempts to use FU when none available (Count)
system.cpu.statFuBusy::FloatAdd                     0      0.00%    100.00% # attempts to use FU when none available (Count)
system.cpu.statFuBusy::FloatCmp                     0      0.00%    100.00% # attempts to use FU when none available (Count)
system.cpu.statFuBusy::FloatCvt                     0      0.00%    100.00% # attempts to use FU when none available (Count)
system.cpu.statFuBusy::FloatMult                    0      0.00%    100.00% # attempts to use FU when none available (Count)
system.cpu.statFuBusy::FloatMultAcc                 0      0.00%    100.00% # attempts to use FU when none available (Count)
system.cpu.statFuBusy::FloatDiv                     0      0.00%    100.00% # attempts to use FU when none available (Count)
system.cpu.statFuBusy::FloatMisc                    0      0.00%    100.00% # attempts to use FU when none available (Count)
system.cpu.statFuBusy::FloatSqrt                    0      0.00%    100.00% # attempts to use FU when none available (Count)
system.cpu.statFuBusy::SimdAdd                      0      0.00%    100.00% # attempts to use FU when none available (Count)
system.cpu.statFuBusy::SimdAddAcc                   0      0.00%    100.00% # attempts to use FU when none available (Count)
system.cpu.statFuBusy::SimdAlu                      0      0.00%    100.00% # attempts to use FU when none available (Count)
system.cpu.statFuBusy::SimdCmp                      0      0.00%    100.00% # attempts to use FU when none available (Count)
system.cpu.statFuBusy::SimdCvt                      0      0.00%    100.00% # attempts to use FU when none available (Count)
system.cpu.statFuBusy::SimdMisc                     0      0.00%    100.00% # attempts to use FU when none available (Count)
system.cpu.statFuBusy::SimdMult                     0      0.00%    100.00% # attempts to use FU when none available (Count)
system.cpu.statFuBusy::SimdMultAcc                  0      0.00%    100.00% # attempts to use FU when none available (Count)
system.cpu.statFuBusy::SimdShift                    0      0.00%    100.00% # attempts to use FU when none available (Count)
system.cpu.statFuBusy::SimdShiftAcc                 0      0.00%    100.00% # attempts to use FU when none available (Count)
system.cpu.statFuBusy::SimdDiv                      0      0.00%    100.00% # attempts to use FU when none available (Count)
system.cpu.statFuBusy::SimdSqrt                     0      0.00%    100.00% # attempts to use FU when none available (Count)
system.cpu.statFuBusy::SimdFloatAdd                 0      0.00%    100.00% # attempts to use FU when none available (Count)
system.cpu.statFuBusy::SimdFloatAlu                 0      0.00%    100.00% # attempts to use FU when none available (Count)
system.cpu.statFuBusy::SimdFloatCmp                 0      0.00%    100.00% # attempts to use FU when none available (Count)
system.cpu.statFuBusy::SimdFloatCvt                 0      0.00%    100.00% # attempts to use FU when none available (Count)
system.cpu.statFuBusy::SimdFloatDiv                 0      0.00%    100.00% # attempts to use FU when none available (Count)
system.cpu.statFuBusy::SimdFloatMisc                0      0.00%    100.00% # attempts to use FU when none available (Count)
system.cpu.statFuBusy::SimdFloatMult                0      0.00%    100.00% # attempts to use FU when none available (Count)
system.cpu.statFuBusy::SimdFloatMultAcc             0      0.00%    100.00% # attempts to use FU when none available (Count)
system.cpu.statFuBusy::SimdFloatSqrt                0      0.00%    100.00% # attempts to use FU when none available (Count)
system.cpu.statFuBusy::SimdReduceAdd                0      0.00%    100.00% # attempts to use FU when none available (Count)
system.cpu.statFuBusy::SimdReduceAlu                0      0.00%    100.00% # attempts to use FU when none available (Count)
system.cpu.statFuBusy::SimdReduceCmp                0      0.00%    100.00% # attempts to use FU when none available (Count)
system.cpu.statFuBusy::SimdFloatReduceAdd            0      0.00%    100.00% # attempts to use FU when none available (Count)
system.cpu.statFuBusy::SimdFloatReduceCmp            0      0.00%    100.00% # attempts to use FU when none available (Count)
system.cpu.statFuBusy::SimdAes                      0      0.00%    100.00% # attempts to use FU when none available (Count)
system.cpu.statFuBusy::SimdAesMix                   0      0.00%    100.00% # attempts to use FU when none available (Count)
system.cpu.statFuBusy::SimdSha1Hash                 0      0.00%    100.00% # attempts to use FU when none available (Count)
system.cpu.statFuBusy::SimdSha1Hash2                0      0.00%    100.00% # attempts to use FU when none available (Count)
system.cpu.statFuBusy::SimdSha256Hash               0      0.00%    100.00% # attempts to use FU when none available (Count)
system.cpu.statFuBusy::SimdSha256Hash2              0      0.00%    100.00% # attempts to use FU when none available (Count)
system.cpu.statFuBusy::SimdShaSigma2                0      0.00%    100.00% # attempts to use FU when none available (Count)
system.cpu.statFuBusy::SimdShaSigma3                0      0.00%    100.00% # attempts to use FU when none available (Count)
system.cpu.statFuBusy::SimdPredAlu                  0      0.00%    100.00% # attempts to use FU when none available (Count)
system.cpu.statFuBusy::MemRead                      0      0.00%    100.00% # attempts to use FU when none available (Count)
system.cpu.statFuBusy::MemWrite                     0      0.00%    100.00% # attempts to use FU when none available (Count)
system.cpu.statFuBusy::FloatMemRead                 0      0.00%    100.00% # attempts to use FU when none available (Count)
system.cpu.statFuBusy::FloatMemWrite                0      0.00%    100.00% # attempts to use FU when none available (Count)
system.cpu.statFuBusy::IprAccess                    0      0.00%    100.00% # attempts to use FU when none available (Count)
system.cpu.statFuBusy::InstPrefetch                 0      0.00%    100.00% # attempts to use FU when none available (Count)
system.cpu.statIssuedInstType_0::No_OpClass           16      0.00%      0.00% # Number of instructions issued per FU type, per thread (Count)
system.cpu.statIssuedInstType_0::IntAlu       7340128     87.50%     87.50% # Number of instructions issued per FU type, per thread (Count)
system.cpu.statIssuedInstType_0::IntMult            0      0.00%     87.50% # Number of instructions issued per FU type, per thread (Count)
system.cpu.statIssuedInstType_0::IntDiv             0      0.00%     87.50% # Number of instructions issued per FU type, per thread (Count)
system.cpu.statIssuedInstType_0::FloatAdd            0      0.00%     87.50% # Number of instructions issued per FU type, per thread (Count)
system.cpu.statIssuedInstType_0::FloatCmp            0      0.00%     87.50% # Number of instructions issued per FU type, per thread (Count)
system.cpu.statIssuedInstType_0::FloatCvt            0      0.00%     87.50% # Number of instructions issued per FU type, per thread (Count)
system.cpu.statIssuedInstType_0::FloatMult            0      0.00%     87.50% # Number of instructions issued per FU type, per thread (Count)
system.cpu.statIssuedInstType_0::FloatMultAcc            0      0.00%     87.50% # Number of instructions issued per FU type, per thread (Count)
system.cpu.statIssuedInstType_0::FloatDiv            0      0.00%     87.50% # Number of instructions issued per FU type, per thread (Count)
system.cpu.statIssuedInstType_0::FloatMisc            0      0.00%     87.50% # Number of instructions issued per FU type, per thread (Count)
system.cpu.statIssuedInstType_0::FloatSqrt            0      0.00%     87.50% # Number of instructions issued per FU type, per thread (Count)
system.cpu.statIssuedInstType_0::SimdAdd            0      0.00%     87.50% # Number of instructions issued per FU type, per thread (Count)
system.cpu.statIssuedInstType_0::SimdAddAcc            0      0.00%     87.50% # Number of instructions issued per FU type, per thread (Count)
system.cpu.statIssuedInstType_0::SimdAlu            0      0.00%     87.50% # Number of instructions issued per FU type, per thread (Count)
system.cpu.statIssuedInstType_0::SimdCmp            0      0.00%     87.50% # Number of instructions issued per FU type, per thread (Count)
system.cpu.statIssuedInstType_0::SimdCvt            0      0.00%     87.50% # Number of instructions issued per FU type, per thread (Count)
system.cpu.statIssuedInstType_0::SimdMisc            0      0.00%     87.50% # Number of instructions issued per FU type, per thread (Count)
system.cpu.statIssuedInstType_0::SimdMult            0      0.00%     87.50% # Number of instructions issued per FU type, per thread (Count)
system.cpu.statIssuedInstType_0::SimdMultAcc            0      0.00%     87.50% # Number of instructions issued per FU type, per thread (Count)
system.cpu.statIssuedInstType_0::SimdShift            0      0.00%     87.50% # Number of instructions issued per FU type, per thread (Count)
system.cpu.statIssuedInstType_0::SimdShiftAcc            0      0.00%     87.50% # Number of instructions issued per FU type, per thread (Count)
system.cpu.statIssuedInstType_0::SimdDiv            0      0.00%     87.50% # Number of instructions issued per FU type, per thread (Count)
system.cpu.statIssuedInstType_0::SimdSqrt            0      0.00%     87.50% # Number of instructions issued per FU type, per thread (Count)
system.cpu.statIssuedInstType_0::SimdFloatAdd            0      0.00%     87.50% # Number of instructions issued per FU type, per thread (Count)
system.cpu.statIssuedInstType_0::SimdFloatAlu            0      0.00%     87.50% # Number of instructions issued per FU type, per thread (Count)
system.cpu.statIssuedInstType_0::SimdFloatCmp            0      0.00%     87.50% # Number of instructions issued per FU type, per thread (Count)
system.cpu.statIssuedInstType_0::SimdFloatCvt            0      0.00%     87.50% # Number of instructions issued per FU type, per thread (Count)
system.cpu.statIssuedInstType_0::SimdFloatDiv            0      0.00%     87.50% # Number of instructions issued per FU type, per thread (Count)
system.cpu.statIssuedInstType_0::SimdFloatMisc            0      0.00%     87.50% # Number of instructions issued per FU type, per thread (Count)
system.cpu.statIssuedInstType_0::SimdFloatMult            0      0.00%     87.50% # Number of instructions issued per FU type, per thread (Count)
system.cpu.statIssuedInstType_0::SimdFloatMultAcc            0      0.00%     87.50% # Number of instructions issued per FU type, per thread (Count)
system.cpu.statIssuedInstType_0::SimdFloatSqrt            0      0.00%     87.50% # Number of instructions issued per FU type, per thread (Count)
system.cpu.statIssuedInstType_0::SimdReduceAdd            0      0.00%     87.50% # Number of instructions issued per FU type, per thread (Count)
system.cpu.statIssuedInstType_0::SimdReduceAlu            0      0.00%     87.50% # Number of instructions issued per FU type, per thread (Count)
system.cpu.statIssuedInstType_0::SimdReduceCmp            0      0.00%     87.50% # Number of instructions issued per FU type, per thread (Count)
system.cpu.statIssuedInstType_0::SimdFloatReduceAdd            0      0.00%     87.50% # Number of instructions issued per FU type, per thread (Count)
system.cpu.statIssuedInstType_0::SimdFloatReduceCmp            0      0.00%     87.50% # Number of instructions issued per FU type, per thread (Count)
system.cpu.statIssuedInstType_0::SimdAes            0      0.00%     87.50% # Number of instructions issued per FU type, per thread (Count)
system.cpu.statIssuedInstType_0::SimdAesMix            0      0.00%     87.50% # Number of instructions issued per FU type, per thread (Count)
system.cpu.statIssuedInstType_0::SimdSha1Hash            0      0.00%     87.50% # Number of instructions issued per FU type, per thread (Count)
system.cpu.statIssuedInstType_0::SimdSha1Hash2            0      0.00%     87.50% # Number of instructions issued per FU type, per thread (Count)
system.cpu.statIssuedInstType_0::SimdSha256Hash            0      0.00%     87.50% # Number of instructions issued per FU type, per thread (Count)
system.cpu.statIssuedInstType_0::SimdSha256Hash2            0      0.00%     87.50% # Number of instructions issued per FU type, per thread (Count)
system.cpu.statIssuedInstType_0::SimdShaSigma2            0      0.00%     87.50% # Number of instructions issued per FU type, per thread (Count)
system.cpu.statIssuedInstType_0::SimdShaSigma3            0      0.00%     87.50% # Number of instructions issued per FU type, per thread (Count)
system.cpu.statIssuedInstType_0::SimdPredAlu            0      0.00%     87.50% # Number of instructions issued per FU type, per thread (Count)
system.cpu.statIssuedInstType_0::MemRead      1048589     12.50%    100.00% # Number of instructions issued per FU type, per thread (Count)
system.cpu.statIssuedInstType_0::MemWrite           11      0.00%    100.00% # Number of instructions issued per FU type, per thread (Count)
system.cpu.statIssuedInstType_0::FloatMemRead            0      0.00%    100.00% # Number of instructions issued per FU type, per thread (Count)
system.cpu.statIssuedInstType_0::FloatMemWrite            0      0.00%    100.00% # Number of instructions issued per FU type, per thread (Count)
system.cpu.statIssuedInstType_0::IprAccess            0      0.00%    100.00% # Number of instructions issued per FU type, per thread (Count)
system.cpu.statIssuedInstType_0::InstPrefetch            0      0.00%    100.00% # Number of instructions issued per FU type, per thread (Count)
system.cpu.statIssuedInstType_0::total        8388744                       # Number of instructions issued per FU type, per thread (Count)
system.cpu.issueRate                         2.666655                       # Inst issue rate ((Count/Cycle))
system.cpu.fuBusy                                  25                       # FU busy when requested (Count)
system.cpu.fuBusyRate                        0.000003                       # FU busy rate (busy events/executed inst) ((Count/Count))
system.cpu.intInstQueueReads                 19923303                       # Number of integer instruction queue reads (Count)
system.cpu.intInstQueueWrites                 8388880                       # Number of integer instruction queue writes (Count)
system.cpu.intInstQueueWakeupAccesses         8388723                       # Number of integer instruction queue wakeup accesses (Count)
system.cpu.fpInstQueueReads                         0                       # Number of floating instruction queue reads (Count)
system.cpu.fpInstQueueWrites                        0                       # Number of floating instruction queue writes (Count)
system.cpu.fpInstQueueWakeupAccesses                0                       # Number of floating instruction queue wakeup accesses (Count)
system.cpu.vecInstQueueReads                        0                       # Number of vector instruction queue reads (Count)
system.cpu.vecInstQueueWrites                       0                       # Number of vector instruction queue writes (Count)
system.cpu.vecInstQueueWakeupAccesses               0                       # Number of vector instruction queue wakeup accesses (Count)
system.cpu.intAluAccesses                     8388753                       # Number of integer alu accesses (Count)
system.cpu.fpAluAccesses                            0                       # Number of floating point alu accesses (Count)
system.cpu.vecAluAccesses                           0                       # Number of vector alu accesses (Count)
system.cpu.idleCycles                               0                       # Number of cycles IEW is idle (Cycle)
system.cpu.squashCycles                             6                       # Number of cycles IEW is squashing (Cycle)
system.cpu.blockCycles                              9                       # Number of cycles IEW is blocking (Cycle)
system.cpu.unblockCycles                            0                       # Number of cycles IEW is unblocking (Cycle)
system.cpu.dispatchedInsts                    8388773                       # Number of instructions dispatched to IQ (Count)
system.cpu.dispSquashedInsts                        4                       # Number of squashed instructions skipped by dispatch (Count)
system.cpu.dispLoadInsts                      1048598                       # Number of dispatched load instructions (Count)
system.cpu.dispStoreInsts                          16                       # Number of dispatched store instructions (Count)
system.cpu.dispNonSpecInsts                         3                       # Number of dispatched non-speculative instructions (Count)
system.cpu.iqFullEvents                             0                       # Number of times the IQ has become full, causing a stall (Count)
system.cpu.lsqFullEvents                            0                       # Number of times the LSQ has become full, causing a stall (Count)
system.cpu.memOrderViolationEvents                  0                       # Number of memory order violations (Count)
system.cpu.predictedTakenIncorrect                  1                       # Number of branches that were predicted taken incorrectly (Count)
system.cpu.predictedNotTakenIncorrect               6                       # Number of branches that were predicted not taken incorrectly (Count)
system.cpu.branchMispredicts                        7                       # Number of branch mispredicts detected at execute (Count)
system.cpu.numInsts                           8388727                       # Number of executed instructions (Count)
system.cpu.numLoadInsts                       1048588                       # Number of load instructions executed (Count)
system.cpu.numSquashedInsts                        14                       # Number of squashed instructions skipped in execute (Count)
system.cpu.numSwp                                   0                       # Number of swp insts executed (Count)
system.cpu.numNop                                   0                       # Number of nop insts executed (Count)
system.cpu.numRefs                            1048598                       # Number of memory reference insts executed (Count)
system.cpu.numBranches                        1048592                       # Number of branches executed (Count)
system.cpu.numStoreInsts                           10                       # Number of stores executed (Count)
system.cpu.numRate                           2.666649                       # Inst execution rate ((Count/Cycle))
system.cpu.instsToCommit                      8388726                       # Cumulative count of insts sent to commit (Count)
system.cpu.writebackCount                     8388723                       # Cumulative count of insts written-back (Count)
system.cpu.producerInst                       7340082                       # Number of instructions producing a value (Count)
system.cpu.consumerInst                       8738222                       # Number of instructions consuming a value (Count)
system.cpu.wbRate                            2.666648                       # Insts written-back per cycle ((Count/Cycle))
system.cpu.wbFanout                          0.839997                       # Average fanout of values written-back ((Count/Count))
system.cpu.committedInsts                     4194313                       # Number of Instructions Simulated (Count)
system.cpu.committedOps                       8388625                       # Number of Ops (including micro ops) Simulated (Count)
system.cpu.cpi                               0.750014                       # CPI: Cycles Per Instruction ((Cycle/Count))
system.cpu.totalCpi                          0.750014                       # CPI: Total CPI of All Threads ((Cycle/Count))
system.cpu.ipc                               1.333309                       # IPC: Instructions Per Cycle ((Count/Cycle))
system.cpu.totalIpc                          1.333309                       # IPC: Total IPC of All Threads ((Count/Cycle))
system.cpu.intRegfileReads                    8388741                       # Number of integer regfile reads (Count)
system.cpu.intRegfileWrites                   7340110                       # Number of integer regfile writes (Count)
system.cpu.ccRegfileReads                     5242901                       # number of cc regfile reads (Count)
system.cpu.ccRegfileWrites                    4194330                       # number of cc regfile writes (Count)
system.cpu.miscRegfileReads                   3145785                       # number of misc regfile reads (Count)
system.cpu.MemDepUnit__0.insertedLoads        1048598                       # Number of loads inserted to the mem dependence unit. (Count)
system.cpu.MemDepUnit__0.insertedStores            16                       # Number of stores inserted to the mem dependence unit. (Count)
system.cpu.MemDepUnit__0.conflictingLoads            0                       # Number of conflicting loads. (Count)
system.cpu.MemDepUnit__0.conflictingStores            0                       # Number of conflicting stores. (Count)
system.cpu.MemDepUnit__1.insertedLoads              0                       # Number of loads inserted to the mem dependence unit. (Count)
system.cpu.MemDepUnit__1.insertedStores             0                       # Number of stores inserted to the mem dependence unit. (Count)
system.cpu.MemDepUnit__1.conflictingLoads            0                       # Number of conflicting loads. (Count)
system.cpu.MemDepUnit__1.conflictingStores            0                       # Number of conflicting stores. (Count)
system.cpu.MemDepUnit__2.insertedLoads              0                       # Number of loads inserted to the mem dependence unit. (Count)
system.cpu.MemDepUnit__2.insertedStores             0                       # Number of stores inserted to the mem dependence unit. (Count)
system.cpu.MemDepUnit__2.conflictingLoads            0                       # Number of conflicting loads. (Count)
system.cpu.MemDepUnit__2.conflictingStores            0                       # Number of conflicting stores. (Count)
system.cpu.MemDepUnit__3.insertedLoads              0                       # Number of loads inserted to the mem dependence unit. (Count)
system.cpu.MemDepUnit__3.insertedStores             0                       # Number of stores inserted to the mem dependence unit. (Count)
system.cpu.MemDepUnit__3.conflictingLoads            0                       # Number of conflicting loads. (Count)
system.cpu.MemDepUnit__3.conflictingStores            0                       # Number of conflicting stores. (Count)
system.cpu.branchPred.lookups                 1048616                       # Number of BP lookups (Count)
system.cpu.branchPred.condPredicted           1048586                       # Number of conditional branches predicted (Count)
system.cpu.branchPred.condIncorrect                 8                       # Number of conditional branches incorrect (Count)
system.cpu.branchPred.BTBLookups              1048591                       # Number of BTB lookups (Count)
system.cpu.branchPred.BTBHits                 1048588                       # Number of BTB hits (Count)
system.cpu.branchPred.BTBHitRatio            0.999997                       # BTB Hit Ratio (Ratio)
system.cpu.branchPred.RASUsed                       5                       # Number of times the RAS was used to get a target. (Count)
system.cpu.branchPred.RASIncorrect                  0                       # Number of incorrect RAS predictions. (Count)
system.cpu.branchPred.indirectLookups              15                       # Number of indirect predictor lookups. (Count)
system.cpu.branchPred.indirectHits                  2                       # Number of indirect target hits. (Count)
system.cpu.branchPred.indirectMisses               13                       # Number of indirect misses. (Count)
system.cpu.branchPred.indirectMispredicted            2                       # Number of mispredicted indirect branches. (Count)
system.cpu.commit.commitSquashedInsts              49                       # The number of squashed insts skipped by commit (Count)
system.cpu.commit.commitNonSpecStalls               1                       # The number of times commit has been forced to stall to communicate backwards (Count)
system.cpu.commit.branchMispredicts                 6                       # The number of times a branch was mispredicted (Count)
system.cpu.commit.numCommittedDist::samples      3145778                       # Number of insts commited each cycle (Count)
system.cpu.commit.numCommittedDist::mean     2.666630                       # Number of insts commited each cycle (Count)
system.cpu.commit.numCommittedDist::stdev     3.771215                       # Number of insts commited each cycle (Count)
system.cpu.commit.numCommittedDist::underflows            0      0.00%      0.00% # Number of insts commited each cycle (Count)
system.cpu.commit.numCommittedDist::0         2097189     66.67%     66.67% # Number of insts commited each cycle (Count)
system.cpu.commit.numCommittedDist::1               7      0.00%     66.67% # Number of insts commited each cycle (Count)
system.cpu.commit.numCommittedDist::2               0      0.00%     66.67% # Number of insts commited each cycle (Count)
system.cpu.commit.numCommittedDist::3               4      0.00%     66.67% # Number of insts commited each cycle (Count)
system.cpu.commit.numCommittedDist::4               0      0.00%     66.67% # Number of insts commited each cycle (Count)
system.cpu.commit.numCommittedDist::5               4      0.00%     66.67% # Number of insts commited each cycle (Count)
system.cpu.commit.numCommittedDist::6               3      0.00%     66.67% # Number of insts commited each cycle (Count)
system.cpu.commit.numCommittedDist::7               0      0.00%     66.67% # Number of insts commited each cycle (Count)
system.cpu.commit.numCommittedDist::8         1048571     33.33%    100.00% # Number of insts commited each cycle (Count)
system.cpu.commit.numCommittedDist::overflows            0      0.00%    100.00% # Number of insts commited each cycle (Count)
system.cpu.commit.numCommittedDist::min_value            0                       # Number of insts commited each cycle (Count)
system.cpu.commit.numCommittedDist::max_value            8                       # Number of insts commited each cycle (Count)
system.cpu.commit.numCommittedDist::total      3145778                       # Number of insts commited each cycle (Count)
system.cpu.commit.instsCommitted              4194313                       # Number of instructions committed (Count)
system.cpu.commit.opsCommitted                8388625                       # Number of ops (including micro ops) committed (Count)
system.cpu.commit.memRefs                     1048578                       # Number of memory references committed (Count)
system.cpu.commit.loads                       1048577                       # Number of loads committed (Count)
system.cpu.commit.amos                              0                       # Number of atomic instructions committed (Count)
system.cpu.commit.membars                           0                       # Number of memory barriers committed (Count)
system.cpu.commit.branches                    1048579                       # Number of branches committed (Count)
system.cpu.commit.vectorInstructions                0                       # Number of committed Vector instructions. (Count)
system.cpu.commit.floating                          0                       # Number of committed floating point instructions. (Count)
system.cpu.commit.integer                     8388623                       # Number of committed integer instructions. (Count)
system.cpu.commit.functionCalls                     1                       # Number of function calls committed. (Count)
system.cpu.commit.committedInstType_0::No_OpClass            1      0.00%      0.00% # Class of committed instruction (Count)
system.cpu.commit.committedInstType_0::IntAlu      7340046     87.50%     87.50% # Class of committed instruction (Count)
system.cpu.commit.committedInstType_0::IntMult            0      0.00%     87.50% # Class of committed instruction (Count)
system.cpu.commit.committedInstType_0::IntDiv            0      0.00%     87.50% # Class of committed instruction (Count)
system.cpu.commit.committedInstType_0::FloatAdd            0      0.00%     87.50% # Class of committed instruction (Count)
system.cpu.commit.committedInstType_0::FloatCmp            0      0.00%     87.50% # Class of committed instruction (Count)
system.cpu.commit.committedInstType_0::FloatCvt            0      0.00%     87.50% # Class of committed instruction (Count)
system.cpu.commit.committedInstType_0::FloatMult            0      0.00%     87.50% # Class of committed instruction (Count)
system.cpu.commit.committedInstType_0::FloatMultAcc            0      0.00%     87.50% # Class of committed instruction (Count)
system.cpu.commit.committedInstType_0::FloatDiv            0      0.00%     87.50% # Class of committed instruction (Count)
system.cpu.commit.committedInstType_0::FloatMisc            0      0.00%     87.50% # Class of committed instruction (Count)
system.cpu.commit.committedInstType_0::FloatSqrt            0      0.00%     87.50% # Class of committed instruction (Count)
system.cpu.commit.committedInstType_0::SimdAdd            0      0.00%     87.50% # Class of committed instruction (Count)
system.cpu.commit.committedInstType_0::SimdAddAcc            0      0.00%     87.50% # Class of committed instruction (Count)
system.cpu.commit.committedInstType_0::SimdAlu            0      0.00%     87.50% # Class of committed instruction (Count)
system.cpu.commit.committedInstType_0::SimdCmp            0      0.00%     87.50% # Class of committed instruction (Count)
system.cpu.commit.committedInstType_0::SimdCvt            0      0.00%     87.50% # Class of committed instruction (Count)
system.cpu.commit.committedInstType_0::SimdMisc            0      0.00%     87.50% # Class of committed instruction (Count)
system.cpu.commit.committedInstType_0::SimdMult            0      0.00%     87.50% # Class of committed instruction (Count)
system.cpu.commit.committedInstType_0::SimdMultAcc            0      0.00%     87.50% # Class of committed instruction (Count)
system.cpu.commit.committedInstType_0::SimdShift            0      0.00%     87.50% # Class of committed instruction (Count)
system.cpu.commit.committedInstType_0::SimdShiftAcc            0      0.00%     87.50% # Class of committed instruction (Count)
system.cpu.commit.committedInstType_0::SimdDiv            0      0.00%     87.50% # Class of committed instruction (Count)
system.cpu.commit.committedInstType_0::SimdSqrt            0      0.00%     87.50% # Class of committed instruction (Count)
system.cpu.commit.committedInstType_0::SimdFloatAdd            0      0.00%     87.50% # Class of committed instruction (Count)
system.cpu.commit.committedInstType_0::SimdFloatAlu            0      0.00%     87.50% # Class of committed instruction (Count)
system.cpu.commit.committedInstType_0::SimdFloatCmp            0      0.00%     87.50% # Class of committed instruction (Count)
system.cpu.commit.committedInstType_0::SimdFloatCvt            0      0.00%     87.50% # Class of committed instruction (Count)
system.cpu.commit.committedInstType_0::SimdFloatDiv            0      0.00%     87.50% # Class of committed instruction (Count)
system.cpu.commit.committedInstType_0::SimdFloatMisc            0      0.00%     87.50% # Class of committed instruction (Count)
system.cpu.commit.committedInstType_0::SimdFloatMult            0      0.00%     87.50% # Class of committed instruction (Count)
system.cpu.commit.committedInstType_0::SimdFloatMultAcc            0      0.00%     87.50% # Class of committed instruction (Count)
system.cpu.commit.committedInstType_0::SimdFloatSqrt            0      0.00%     87.50% # Class of committed instruction (Count)
system.cpu.commit.committedInstType_0::SimdReduceAdd            0      0.00%     87.50% # Class of committed instruction (Count)
system.cpu.commit.committedInstType_0::SimdReduceAlu            0      0.00%     87.50% # Class of committed instruction (Count)
system.cpu.commit.committedInstType_0::SimdReduceCmp            0      0.00%     87.50% # Class of committed instruction (Count)
system.cpu.commit.committedInstType_0::SimdFloatReduceAdd            0      0.00%     87.50% # Class of committed instruction (Count)
system.cpu.commit.committedInstType_0::SimdFloatReduceCmp            0      0.00%     87.50% # Class of committed instruction (Count)
system.cpu.commit.committedInstType_0::SimdAes            0      0.00%     87.50% # Class of committed instruction (Count)
system.cpu.commit.committedInstType_0::SimdAesMix            0      0.00%     87.50% # Class of committed instruction (Count)
system.cpu.commit.committedInstType_0::SimdSha1Hash            0      0.00%     87.50% # Class of committed instruction (Count)
system.cpu.commit.committedInstType_0::SimdSha1Hash2            0      0.00%     87.50% # Class of committed instruction (Count)
system.cpu.commit.committedInstType_0::SimdSha256Hash            0      0.00%     87.50% # Class of committed instruction (Count)
system.cpu.commit.committedInstType_0::SimdSha256Hash2            0      0.00%     87.50% # Class of committed instruction (Count)
system.cpu.commit.committedInstType_0::SimdShaSigma2            0      0.00%     87.50% # Class of committed instruction (Count)
system.cpu.commit.committedInstType_0::SimdShaSigma3            0      0.00%     87.50% # Class of committed instruction (Count)
system.cpu.commit.committedInstType_0::SimdPredAlu            0      0.00%     87.50% # Class of committed instruction (Count)
system.cpu.commit.committedInstType_0::MemRead      1048577     12.50%    100.00% # Class of committed instruction (Count)
system.cpu.commit.committedInstType_0::MemWrite            1      0.00%    100.00% # Class of committed instruction (Count)
system.cpu.commit.committedInstType_0::FloatMemRead            0      0.00%    100.00% # Class of committed instruction (Count)
system.cpu.commit.committedInstType_0::FloatMemWrite            0      0.00%    100.00% # Class of committed instruction (Count)
system.cpu.commit.committedInstType_0::IprAccess            0      0.00%    100.00% # Class of committed instruction (Count)
system.cpu.commit.committedInstType_0::InstPrefetch            0      0.00%    100.00% # Class of committed instruction (Count)
system.cpu.commit.committedInstType_0::total      8388625                       # Class of committed instruction (Count)
system.cpu.commit.commitEligibleSamples       1048571                       # number cycles where commit BW limit reached (Cycle)
system.cpu.decode.idleCycles                   349573                       # Number of cycles decode is idle (Cycle)
system.cpu.decode.blockedCycles               1747600                       # Number of cycles decode is blocked (Cycle)
system.cpu.decode.runCycles                        65                       # Number of cycles decode is running (Cycle)
system.cpu.decode.unblockCycles               1048549                       # Number of cycles decode is unblocking (Cycle)
system.cpu.decode.squashCycles                      6                       # Number of cycles decode is squashing (Cycle)
system.cpu.decode.branchResolved              1048585                       # Number of times decode resolved a branch (Count)
system.cpu.decode.branchMispred                     1                       # Number of times decode detected a branch misprediction (Count)
system.cpu.decode.decodedInsts                8388831                       # Number of instructions handled by decode (Count)
system.cpu.decode.squashedInsts                    16                       # Number of squashed instructions handled by decode (Count)
system.cpu.fetch.icacheStallCycles                 58                       # Number of cycles fetch is stalled on an Icache miss (Cycle)
system.cpu.fetch.insts                        4194449                       # Number of instructions fetch has processed (Count)
system.cpu.fetch.branches                     1048616                       # Number of branches that fetch encountered (Count)
system.cpu.fetch.predictedBranches            1048595                       # Number of branches that fetch has predicted taken (Count)
system.cpu.fetch.cycles                       3145727                       # Number of cycles fetch has run and was not squashing or blocked (Cycle)
system.cpu.fetch.squashCycles                      16                       # Number of cycles fetch has spent squashing (Cycle)
system.cpu.fetch.cacheLines                        26                       # Number of cache lines fetched (Count)
system.cpu.fetch.icacheSquashes                     1                       # Number of outstanding Icache misses that were squashed (Count)
system.cpu.fetch.nisnDist::samples            3145793                       # Number of instructions fetched each cycle (Total) (Count)
[...]
system.mem_ctrl.rdPerTurnAround::stdev       0.317485                       # Reads before turning the bus around for writes (Count)
system.mem_ctrl.rdPerTurnAround::12                 3      0.00%      0.00% # Reads before turning the bus around for writes (Count)
system.mem_ctrl.rdPerTurnAround::13                30      0.01%      0.01% # Reads before turning the bus around for writes (Count)
system.mem_ctrl.rdPerTurnAround::14               868      0.37%      0.39% # Reads before turning the bus around for writes (Count)
system.mem_ctrl.rdPerTurnAround::15             19140      8.22%      8.61% # Reads before turning the bus around for writes (Count)
system.mem_ctrl.rdPerTurnAround::16            210778     90.51%     99.11% # Reads before turning the bus around for writes (Count)
system.mem_ctrl.rdPerTurnAround::17              2067      0.89%    100.00% # Reads before turning the bus around for writes (Count)
system.mem_ctrl.rdPerTurnAround::18                 3      0.00%    100.00% # Reads before turning the bus around for writes (Count)
system.mem_ctrl.rdPerTurnAround::total         232889                       # Reads before turning the bus around for writes (Count)
system.mem_ctrl.wrPerTurnAround::samples       232889                       # Writes before turning the bus around for reads (Count)
system.mem_ctrl.wrPerTurnAround::mean       16.009700                       # Writes before turning the bus around for reads (Count)
system.mem_ctrl.wrPerTurnAround::gmean      16.009382                       # Writes before turning the bus around for reads (Count)
system.mem_ctrl.wrPerTurnAround::stdev       0.103465                       # Writes before turning the bus around for reads (Count)
system.mem_ctrl.wrPerTurnAround::16            230741     99.08%     99.08% # Writes before turning the bus around for reads (Count)
system.mem_ctrl.wrPerTurnAround::17              2054      0.88%     99.96% # Writes before turning the bus around for reads (Count)
system.mem_ctrl.wrPerTurnAround::18                77      0.03%     99.99% # Writes before turning the bus around for reads (Count)
system.mem_ctrl.wrPerTurnAround::19                17      0.01%    100.00% # Writes before turning the bus around for reads (Count)
system.mem_ctrl.wrPerTurnAround::total         232889                       # Writes before turning the bus around for reads (Count)
system.mem_ctrl.bytesReadWrQ                  1354304                       # Total number of bytes read from write queue (Byte)
system.mem_ctrl.bytesReadSys                238623680                       # Total read bytes from the system interface side (Byte)
system.mem_ctrl.bytesWrittenSys             238623680                       # Total written bytes from the system interface side (Byte)
system.mem_ctrl.avgRdBWSys               790748600.11621594                       # Average system read bandwidth in Byte/s ((Byte/Second))
system.mem_ctrl.avgWrBWSys               790748600.11621594                       # Average system write bandwidth in Byte/s ((Byte/Second))
system.mem_ctrl.totGap                   301769379000                       # Total gap between requests (Tick)
system.mem_ctrl.avgGap                       40467.99                       # Average gap between requests ((Tick/Count))
system.mem_ctrl.requestorReadBytes::caches.controllers1    237269376                       # Per-requestor bytes read from memory (Byte)
system.mem_ctrl.requestorWriteBytes::caches.controllers1    238622912                       # Per-requestor bytes write to memory (Byte)
system.mem_ctrl.requestorReadRate::caches.controllers1 786260721.997280716896                       # Per-requestor bytes read from memory rate ((Byte/Second))
system.mem_ctrl.requestorWriteRate::caches.controllers1 790746055.126025080681                       # Per-requestor bytes write to memory rate ((Byte/Second))
system.mem_ctrl.requestorReadAccesses::caches.controllers1      3728495                       # Per-requestor read serviced memory accesses (Count)
system.mem_ctrl.requestorWriteAccesses::caches.controllers1      3728495                       # Per-requestor write serviced memory accesses (Count)
system.mem_ctrl.requestorReadTotalLat::caches.controllers1 149656292750                       # Per-requestor read total memory access latency (Tick)
system.mem_ctrl.requestorWriteTotalLat::caches.controllers1 7473477285500                       # Per-requestor write total memory access latency (Tick)
system.mem_ctrl.requestorReadAvgLat::caches.controllers1     40138.53                       # Per-requestor read average memory access latency ((Tick/Count))
system.mem_ctrl.requestorWriteAvgLat::caches.controllers1   2004421.97                       # Per-requestor write average memory access latency ((Tick/Count))
system.mem_ctrl.dram.bytesRead::caches.controllers1    238623680                       # Number of bytes read from this memory (Byte)
system.mem_ctrl.dram.bytesRead::total       238623680                       # Number of bytes read from this memory (Byte)
system.mem_ctrl.dram.bytesWritten::caches.controllers1    238623680                       # Number of bytes written to this memory (Byte)
system.mem_ctrl.dram.bytesWritten::total    238623680                       # Number of bytes written to this memory (Byte)
system.mem_ctrl.dram.numReads::caches.controllers1      3728495                       # Number of read requests responded to by this memory (Count)
system.mem_ctrl.dram.numReads::total          3728495                       # Number of read requests responded to by this memory (Count)
system.mem_ctrl.dram.numWrites::caches.controllers1      3728495                       # Number of write requests responded to by this memory (Count)
system.mem_ctrl.dram.numWrites::total         3728495                       # Number of write requests responded to by this memory (Count)
system.mem_ctrl.dram.bwRead::caches.controllers1    790748600                       # Total read bandwidth from this memory ((Byte/Second))
system.mem_ctrl.dram.bwRead::total          790748600                       # Total read bandwidth from this memory ((Byte/Second))
system.mem_ctrl.dram.bwWrite::caches.controllers1    790748600                       # Write bandwidth from this memory ((Byte/Second))
system.mem_ctrl.dram.bwWrite::total         790748600                       # Write bandwidth from this memory ((Byte/Second))
system.mem_ctrl.dram.bwTotal::caches.controllers1   1581497200                       # Total bandwidth to/from this memory ((Byte/Second))
system.mem_ctrl.dram.bwTotal::total        1581497200                       # Total bandwidth to/from this memory ((Byte/Second))
system.mem_ctrl.dram.readBursts               3707334                       # Number of DRAM read bursts (Count)
system.mem_ctrl.dram.writeBursts              3728483                       # Number of DRAM write bursts (Count)
system.mem_ctrl.dram.perBankRdBursts::0        235651                       # Per bank write bursts (Count)
system.mem_ctrl.dram.perBankRdBursts::1        230874                       # Per bank write bursts (Count)
system.mem_ctrl.dram.perBankRdBursts::2        233131                       # Per bank write bursts (Count)
system.mem_ctrl.dram.perBankRdBursts::3        231645                       # Per bank write bursts (Count)
system.mem_ctrl.dram.perBankRdBursts::4        229103                       # Per bank write bursts (Count)
system.mem_ctrl.dram.perBankRdBursts::5        229452                       # Per bank write bursts (Count)
system.mem_ctrl.dram.perBankRdBursts::6        230311                       # Per bank write bursts (Count)
system.mem_ctrl.dram.perBankRdBursts::7        230753                       # Per bank write bursts (Count)
system.mem_ctrl.dram.perBankRdBursts::8        231561                       # Per bank write bursts (Count)
system.mem_ctrl.dram.perBankRdBursts::9        288548                       # Per bank write bursts (Count)
system.mem_ctrl.dram.perBankRdBursts::10       176149                       # Per bank write bursts (Count)
system.mem_ctrl.dram.perBankRdBursts::11       232446                       # Per bank write bursts (Count)
system.mem_ctrl.dram.perBankRdBursts::12       229010                       # Per bank write bursts (Count)
system.mem_ctrl.dram.perBankRdBursts::13       234145                       # Per bank write bursts (Count)
system.mem_ctrl.dram.perBankRdBursts::14       231952                       # Per bank write bursts (Count)
system.mem_ctrl.dram.perBankRdBursts::15       232603                       # Per bank write bursts (Count)
system.mem_ctrl.dram.perBankWrBursts::0        236749                       # Per bank write bursts (Count)
system.mem_ctrl.dram.perBankWrBursts::1        232190                       # Per bank write bursts (Count)
system.mem_ctrl.dram.perBankWrBursts::2        234196                       # Per bank write bursts (Count)
system.mem_ctrl.dram.perBankWrBursts::3        233050                       # Per bank write bursts (Count)
system.mem_ctrl.dram.perBankWrBursts::4        231007                       # Per bank write bursts (Count)
system.mem_ctrl.dram.perBankWrBursts::5        231323                       # Per bank write bursts (Count)
system.mem_ctrl.dram.perBankWrBursts::6        231398                       # Per bank write bursts (Count)
system.mem_ctrl.dram.perBankWrBursts::7        232225                       # Per bank write bursts (Count)
system.mem_ctrl.dram.perBankWrBursts::8        232609                       # Per bank write bursts (Count)
system.mem_ctrl.dram.perBankWrBursts::9        289999                       # Per bank write bursts (Count)
system.mem_ctrl.dram.perBankWrBursts::10       176859                       # Per bank write bursts (Count)
system.mem_ctrl.dram.perBankWrBursts::11       233889                       # Per bank write bursts (Count)
system.mem_ctrl.dram.perBankWrBursts::12       230321                       # Per bank write bursts (Count)
system.mem_ctrl.dram.perBankWrBursts::13       235307                       # Per bank write bursts (Count)
system.mem_ctrl.dram.perBankWrBursts::14       233432                       # Per bank write bursts (Count)
system.mem_ctrl.dram.perBankWrBursts::15       233929                       # Per bank write bursts (Count)
system.mem_ctrl.dram.totQLat              80143780250                       # Total ticks spent queuing (Tick)
system.mem_ctrl.dram.totBusLat            18536670000                       # Total ticks spent in databus transfers (Tick)
system.mem_ctrl.dram.totMemAccLat        149656292750                       # Total ticks spent from burst creation until serviced by the DRAM (Tick)
system.mem_ctrl.dram.avgQLat                 21617.63                       # Average queueing delay per DRAM burst ((Tick/Count))
system.mem_ctrl.dram.avgBusLat                5000.00                       # Average bus latency per DRAM burst ((Tick/Count))
system.mem_ctrl.dram.avgMemAccLat            40367.63                       # Average memory access latency per DRAM burst ((Tick/Count))
system.mem_ctrl.dram.readRowHits              1336784                       # Number of row buffer hits during reads (Count)
system.mem_ctrl.dram.writeRowHits             2851739                       # Number of row buffer hits during writes (Count)
system.mem_ctrl.dram.readRowHitRate             36.06                       # Row buffer hit rate for reads (Ratio)
system.mem_ctrl.dram.writeRowHitRate            76.49                       # Row buffer hit rate for writes (Ratio)
system.mem_ctrl.dram.bytesPerActivate::samples      3247298                       # Bytes accessed per row activation (Byte)
system.mem_ctrl.dram.bytesPerActivate::mean   146.550236                       # Bytes accessed per row activation (Byte)
system.mem_ctrl.dram.bytesPerActivate::gmean   121.243014                       # Bytes accessed per row activation (Byte)
system.mem_ctrl.dram.bytesPerActivate::stdev    97.296009                       # Bytes accessed per row activation (Byte)
system.mem_ctrl.dram.bytesPerActivate::0-127      1301517     40.08%     40.08% # Bytes accessed per row activation (Byte)
system.mem_ctrl.dram.bytesPerActivate::128-255      1355842     41.75%     81.83% # Bytes accessed per row activation (Byte)
system.mem_ctrl.dram.bytesPerActivate::256-383       450805     13.88%     95.72% # Bytes accessed per row activation (Byte)
system.mem_ctrl.dram.bytesPerActivate::384-511       111472      3.43%     99.15% # Bytes accessed per row activation (Byte)
system.mem_ctrl.dram.bytesPerActivate::512-639        22833      0.70%     99.85% # Bytes accessed per row activation (Byte)
system.mem_ctrl.dram.bytesPerActivate::640-767         4109      0.13%     99.98% # Bytes accessed per row activation (Byte)
system.mem_ctrl.dram.bytesPerActivate::768-895          618      0.02%    100.00% # Bytes accessed per row activation (Byte)
system.mem_ctrl.dram.bytesPerActivate::896-1023           88      0.00%    100.00% # Bytes accessed per row activation (Byte)
system.mem_ctrl.dram.bytesPerActivate::1024-1151           14      0.00%    100.00% # Bytes accessed per row activation (Byte)
system.mem_ctrl.dram.bytesPerActivate::total      3247298                       # Bytes accessed per row activation (Byte)
system.mem_ctrl.dram.bytesRead              237269376                       # Total number of bytes read from DRAM (Byte)
system.mem_ctrl.dram.bytesWritten           238622912                       # Total number of bytes written to DRAM (Byte)
system.mem_ctrl.dram.avgRdBW               786.260722                       # Average DRAM read bandwidth in MiBytes/s ((Byte/Second))
system.mem_ctrl.dram.avgWrBW               790.746055                       # Average DRAM write bandwidth in MiBytes/s ((Byte/Second))
system.mem_ctrl.dram.peakBW                  12800.00                       # Theoretical peak bandwidth in MiByte/s ((Byte/Second))
system.mem_ctrl.dram.busUtil                    12.32                       # Data bus utilization in percentage (Ratio)
system.mem_ctrl.dram.busUtilRead                 6.14                       # Data bus utilization in percentage for reads (Ratio)
system.mem_ctrl.dram.busUtilWrite                6.18                       # Data bus utilization in percentage for writes (Ratio)
system.mem_ctrl.dram.pageHitRate                56.33                       # Row buffer hit rate, read and write combined (Ratio)
system.mem_ctrl.dram.power_state.pwrStateResidencyTicks::UNDEFINED 309027057000                       # Cumulative time (in ticks) in various power states (Tick)
system.mem_ctrl.dram.rank0.actEnergy      11429883360                       # Energy for activate commands per rank (pJ) (Joule)
system.mem_ctrl.dram.rank0.preEnergy       6075111900                       # Energy for precharge commands per rank (pJ) (Joule)
system.mem_ctrl.dram.rank0.readEnergy     13215747300                       # Energy for read commands per rank (pJ) (Joule)
system.mem_ctrl.dram.rank0.writeEnergy     9720464760                       # Energy for write commands per rank (pJ) (Joule)
system.mem_ctrl.dram.rank0.refreshEnergy 23820987840.000004                       # Energy for refresh commands per rank (pJ) (Joule)
system.mem_ctrl.dram.rank0.actBackEnergy 135875644110                       # Energy for active background per rank (pJ) (Joule)
system.mem_ctrl.dram.rank0.preBackEnergy   1458417120                       # Energy for precharge background per rank (pJ) (Joule)
system.mem_ctrl.dram.rank0.actPowerDownEnergy            0                       # Energy for active power-down per rank (pJ) (Joule)
system.mem_ctrl.dram.rank0.prePowerDownEnergy            0                       # Energy for precharge power-down per rank (pJ) (Joule)
system.mem_ctrl.dram.rank0.selfRefreshEnergy            0                       # Energy for self refresh per rank (pJ) (Joule)
system.mem_ctrl.dram.rank0.totalEnergy   201596256390                       # Total energy per rank (pJ) (Joule)
system.mem_ctrl.dram.rank0.averagePower    668.047520                       # Core power per rank (mW) (Watt)
system.mem_ctrl.dram.rank0.totalIdleTime            0                       # Total Idle time Per DRAM Rank (Tick)
system.mem_ctrl.dram.rank0.pwrStateTime::IDLE   2684628750                       # Time in different power states (Tick)
system.mem_ctrl.dram.rank0.pwrStateTime::REF  10076560000                       # Time in different power states (Tick)
system.mem_ctrl.dram.rank0.pwrStateTime::SREF            0                       # Time in different power states (Tick)
system.mem_ctrl.dram.rank0.pwrStateTime::PRE_PDN            0                       # Time in different power states (Tick)
system.mem_ctrl.dram.rank0.pwrStateTime::ACT 289009676250                       # Time in different power states (Tick)
system.mem_ctrl.dram.rank0.pwrStateTime::ACT_PDN            0                       # Time in different power states (Tick)
system.mem_ctrl.dram.rank1.actEnergy      11756202780                       # Energy for activate commands per rank (pJ) (Joule)
system.mem_ctrl.dram.rank1.preEnergy       6248550990                       # Energy for precharge commands per rank (pJ) (Joule)
system.mem_ctrl.dram.rank1.readEnergy     13254938760                       # Energy for read commands per rank (pJ) (Joule)
system.mem_ctrl.dram.rank1.writeEnergy     9742467060                       # Energy for write commands per rank (pJ) (Joule)
system.mem_ctrl.dram.rank1.refreshEnergy 23820987840.000004                       # Energy for refresh commands per rank (pJ) (Joule)
system.mem_ctrl.dram.rank1.actBackEnergy 135879607890                       # Energy for active background per rank (pJ) (Joule)
system.mem_ctrl.dram.rank1.preBackEnergy   1455182400                       # Energy for precharge background per rank (pJ) (Joule)
system.mem_ctrl.dram.rank1.actPowerDownEnergy            0                       # Energy for active power-down per rank (pJ) (Joule)
system.mem_ctrl.dram.rank1.prePowerDownEnergy            0                       # Energy for precharge power-down per rank (pJ) (Joule)
system.mem_ctrl.dram.rank1.selfRefreshEnergy            0                       # Energy for self refresh per rank (pJ) (Joule)
system.mem_ctrl.dram.rank1.totalEnergy   202157937720                       # Total energy per rank (pJ) (Joule)
system.mem_ctrl.dram.rank1.averagePower    669.908813                       # Core power per rank (mW) (Watt)
system.mem_ctrl.dram.rank1.totalIdleTime            0                       # Total Idle time Per DRAM Rank (Tick)
system.mem_ctrl.dram.rank1.pwrStateTime::IDLE   2669120000                       # Time in different power states (Tick)
system.mem_ctrl.dram.rank1.pwrStateTime::REF  10076560000                       # Time in different power states (Tick)
system.mem_ctrl.dram.rank1.pwrStateTime::SREF            0                       # Time in different power states (Tick)
system.mem_ctrl.dram.rank1.pwrStateTime::PRE_PDN            0                       # Time in different power states (Tick)
system.mem_ctrl.dram.rank1.pwrStateTime::ACT 289025452750                       # Time in different power states (Tick)
system.mem_ctrl.dram.rank1.pwrStateTime::ACT_PDN            0                       # Time in different power states (Tick)
system.mem_ctrl.power_state.pwrStateResidencyTicks::UNDEFINED 309027057000                       # Cumulative time (in ticks) in various power states (Tick)
system.workload.inst.arm                            0                       # number of arm instructions executed (Count)
system.workload.inst.quiesce                        0                       # number of quiesce instructions executed (Count)

---------- End Simulation Statistics   ----------
