
---------- Begin Simulation Statistics ----------
simSeconds                                   0.076655                       # Number of seconds simulated (Second)
simTicks                                  76655360000                       # Number of ticks simulated (Tick)
finalTick                                 76655360000                       # Number of ticks from beginning of simulation (restored from checkpoints and never reset) (Tick)
simFreq                                  1000000000000                       # The number of ticks per simulated second ((Tick/Second))
hostSeconds                                    223.81                       # Real time elapsed on the host (Second)
hostTickRate                                342494656                       # The number of ticks simulated per host second (ticks/s) ((Tick/Second))
hostMemory                                    9639680                       # Number of bytes of host memory used (Byte)
simInsts                                     46698355                       # Number of instructions simulated (Count)
simOps                                       83201955                       # Number of ops (including micro ops) simulated (Count)
hostInstRate                                   208647                       # Simulator instruction rate (inst/s) ((Count/Second))
hostOpRate                                     371745                       # Simulator op (including micro ops) rate (op/s) ((Count/Second))
system.caches.delayHistogram::bucket_size            8                       # delay histogram for all message (Unspecified)
system.caches.delayHistogram::max_bucket           79                       # delay histogram for all message (Unspecified)
system.caches.delayHistogram::samples         2321580                       # delay histogram for all message (Unspecified)
system.caches.delayHistogram::mean           0.422637                       # delay histogram for all message (Unspecified)
system.caches.delayHistogram::stdev          1.700666                       # delay histogram for all message (Unspecified)
system.caches.delayHistogram             |     2312558     99.61%     99.61% |        5686      0.24%     99.86% |        2076      0.09%     99.95% |         809      0.03%     99.98% |         310      0.01%     99.99% |          91      0.00%    100.00% |          39      0.00%    100.00% |           7      0.00%    100.00% |           3      0.00%    100.00% |           1      0.00%    100.00% # delay histogram for all message (Unspecified)
system.caches.delayHistogram::total           2321580                       # delay histogram for all message (Unspecified)
system.caches.m_outstandReqHistSeqr::bucket_size            2                       (Unspecified)
system.caches.m_outstandReqHistSeqr::max_bucket           19                       (Unspecified)
system.caches.m_outstandReqHistSeqr::samples     28279745                       (Unspecified)
system.caches.m_outstandReqHistSeqr::mean     1.687891                       (Unspecified)
system.caches.m_outstandReqHistSeqr::gmean     1.483386                       (Unspecified)
system.caches.m_outstandReqHistSeqr::stdev     1.014221                       (Unspecified)
system.caches.m_outstandReqHistSeqr      |    15535310     54.93%     54.93% |    11164448     39.48%     94.41% |     1383494      4.89%     99.31% |      135265      0.48%     99.78% |       33208      0.12%     99.90% |       16526      0.06%     99.96% |        6683      0.02%     99.98% |        2831      0.01%     99.99% |        1980      0.01%    100.00% |           0      0.00%    100.00% (Unspecified)
system.caches.m_outstandReqHistSeqr::total     28279745                       (Unspecified)
system.caches.m_latencyHistSeqr::bucket_size           64                       (Unspecified)
system.caches.m_latencyHistSeqr::max_bucket          639                       (Unspecified)
system.caches.m_latencyHistSeqr::samples     28626234                       (Unspecified)
system.caches.m_latencyHistSeqr::mean        2.844640                       (Unspecified)
system.caches.m_latencyHistSeqr::gmean       1.182613                       (Unspecified)
system.caches.m_latencyHistSeqr::stdev      10.881430                       (Unspecified)
system.caches.m_latencyHistSeqr          |    28479434     99.49%     99.49% |      106059      0.37%     99.86% |       32065      0.11%     99.97% |        4697      0.02%     99.99% |        2247      0.01%     99.99% |        1289      0.00%    100.00% |         253      0.00%    100.00% |         159      0.00%    100.00% |          31      0.00%    100.00% |           0      0.00%    100.00% (Unspecified)
system.caches.m_latencyHistSeqr::total       28626234                       (Unspecified)
system.caches.m_hitLatencyHistSeqr::bucket_size           64                       (Unspecified)
system.caches.m_hitLatencyHistSeqr::max_bucket          639                       (Unspecified)
system.caches.m_hitLatencyHistSeqr::samples     27465428                       (Unspecified)
system.caches.m_hitLatencyHistSeqr::mean     1.084807                       (Unspecified)
system.caches.m_hitLatencyHistSeqr::gmean     1.020653                       (Unspecified)
system.caches.m_hitLatencyHistSeqr::stdev     1.259412                       (Unspecified)
system.caches.m_hitLatencyHistSeqr       |    27465213    100.00%    100.00% |         124      0.00%    100.00% |          74      0.00%    100.00% |          13      0.00%    100.00% |           1      0.00%    100.00% |           1      0.00%    100.00% |           2      0.00%    100.00% |           0      0.00%    100.00% |           0      0.00%    100.00% |           0      0.00%    100.00% (Unspecified)
system.caches.m_hitLatencyHistSeqr::total     27465428                       (Unspecified)
system.caches.m_missLatencyHistSeqr::bucket_size           64                       (Unspecified)
system.caches.m_missLatencyHistSeqr::max_bucket          639                       (Unspecified)
system.caches.m_missLatencyHistSeqr::samples      1160806                       (Unspecified)
system.caches.m_missLatencyHistSeqr::mean    44.483438                       (Unspecified)
system.caches.m_missLatencyHistSeqr::gmean    38.573524                       (Unspecified)
system.caches.m_missLatencyHistSeqr::stdev    32.792727                       (Unspecified)
system.caches.m_missLatencyHistSeqr      |     1014221     87.37%     87.37% |      105935      9.13%     96.50% |       31991      2.76%     99.25% |        4684      0.40%     99.66% |        2246      0.19%     99.85% |        1288      0.11%     99.96% |         251      0.02%     99.98% |         159      0.01%    100.00% |          31      0.00%    100.00% |           0      0.00%    100.00% (Unspecified)
system.caches.m_missLatencyHistSeqr::total      1160806                       (Unspecified)
system.caches.delayVCHist.vnet_1::bucket_size            4                       # delay histogram for vnet_1 (Unspecified)
system.caches.delayVCHist.vnet_1::max_bucket           39                       # delay histogram for vnet_1 (Unspecified)
system.caches.delayVCHist.vnet_1::samples      1160806                       # delay histogram for vnet_1 (Unspecified)
system.caches.delayVCHist.vnet_1::mean       0.054955                       # delay histogram for vnet_1 (Unspecified)
system.caches.delayVCHist.vnet_1::stdev      0.595599                       # delay histogram for vnet_1 (Unspecified)
system.caches.delayVCHist.vnet_1         |     1151511     99.20%     99.20% |        6264      0.54%     99.74% |        2807      0.24%     99.98% |         108      0.01%     99.99% |         101      0.01%    100.00% |           9      0.00%    100.00% |           6      0.00%    100.00% |           0      0.00%    100.00% |           0      0.00%    100.00% |           0      0.00%    100.00% # delay histogram for vnet_1 (Unspecified)
system.caches.delayVCHist.vnet_1::total       1160806                       # delay histogram for vnet_1 (Unspecified)
system.caches.delayVCHist.vnet_2::bucket_size            8                       # delay histogram for vnet_2 (Unspecified)
system.caches.delayVCHist.vnet_2::max_bucket           79                       # delay histogram for vnet_2 (Unspecified)
system.caches.delayVCHist.vnet_2::samples      1160774                       # delay histogram for vnet_2 (Unspecified)
system.caches.delayVCHist.vnet_2::mean       0.790330                       # delay histogram for vnet_2 (Unspecified)
system.caches.delayVCHist.vnet_2::stdev      2.271447                       # delay histogram for vnet_2 (Unspecified)
system.caches.delayVCHist.vnet_2         |     1154783     99.48%     99.48% |        2771      0.24%     99.72% |        1966      0.17%     99.89% |         803      0.07%     99.96% |         310      0.03%     99.99% |          91      0.01%    100.00% |          39      0.00%    100.00% |           7      0.00%    100.00% |           3      0.00%    100.00% |           1      0.00%    100.00% # delay histogram for vnet_2 (Unspecified)
system.caches.delayVCHist.vnet_2::total       1160774                       # delay histogram for vnet_2 (Unspecified)
system.caches.L1Cache_Controller.Load         8995146      0.00%      0.00% (Unspecified)
system.caches.L1Cache_Controller.Ifetch       8651688      0.00%      0.00% (Unspecified)
system.caches.L1Cache_Controller.Store       10979401      0.00%      0.00% (Unspecified)
system.caches.L1Cache_Controller.Data         1160806      0.00%      0.00% (Unspecified)
system.caches.L1Cache_Controller.Replacement      1160775      0.00%      0.00% (Unspecified)
system.caches.L1Cache_Controller.Writeback_Ack      1160774      0.00%      0.00% (Unspecified)
system.caches.L1Cache_Controller.I.Load        413369      0.00%      0.00% (Unspecified)
system.caches.L1Cache_Controller.I.Ifetch       550997      0.00%      0.00% (Unspecified)
system.caches.L1Cache_Controller.I.Store       196441      0.00%      0.00% (Unspecified)
system.caches.L1Cache_Controller.M.Load       8581777      0.00%      0.00% (Unspecified)
system.caches.L1Cache_Controller.M.Ifetch      8100691      0.00%      0.00% (Unspecified)
system.caches.L1Cache_Controller.M.Store     10782960      0.00%      0.00% (Unspecified)
system.caches.L1Cache_Controller.M.Replacement      1160775      0.00%      0.00% (Unspecified)
system.caches.L1Cache_Controller.MI.Writeback_Ack      1160774      0.00%      0.00% (Unspecified)
system.caches.L1Cache_Controller.IS.Data       964365      0.00%      0.00% (Unspecified)
system.caches.L1Cache_Controller.IM.Data       196441      0.00%      0.00% (Unspecified)
system.caches.Directory_Controller.GETX       1160806      0.00%      0.00% (Unspecified)
system.caches.Directory_Controller.PUTX       1160774      0.00%      0.00% (Unspecified)
system.caches.Directory_Controller.Memory_Data      1160806      0.00%      0.00% (Unspecified)
system.caches.Directory_Controller.Memory_Ack      1160774      0.00%      0.00% (Unspecified)
system.caches.Directory_Controller.I.GETX      1160806      0.00%      0.00% (Unspecified)
system.caches.Directory_Controller.M.PUTX      1160774      0.00%      0.00% (Unspecified)
system.caches.Directory_Controller.IM.Memory_Data      1160806      0.00%      0.00% (Unspecified)
system.caches.Directory_Controller.MI.Memory_Ack      1160774      0.00%      0.00% (Unspecified)
system.caches.MachineType.Directory.miss_mach_latency_hist_seqr::bucket_size           64                       (Unspecified)
system.caches.MachineType.Directory.miss_mach_latency_hist_seqr::max_bucket          639                       (Unspecified)
system.caches.MachineType.Directory.miss_mach_latency_hist_seqr::samples      1160806                       (Unspecified)
system.caches.MachineType.Directory.miss_mach_latency_hist_seqr::mean    44.483438                       (Unspecified)
system.caches.MachineType.Directory.miss_mach_latency_hist_seqr::gmean    38.573524                       (Unspecified)
system.caches.MachineType.Directory.miss_mach_latency_hist_seqr::stdev    32.792727                       (Unspecified)
system.caches.MachineType.Directory.miss_mach_latency_hist_seqr |     1014221     87.37%     87.37% |      105935      9.13%     96.50% |       31991      2.76%     99.25% |        4684      0.40%     99.66% |        2246      0.19%     99.85% |        1288      0.11%     99.96% |         251      0.02%     99.98% |         159      0.01%    100.00% |          31      0.00%    100.00% |           0      0.00%    100.00% (Unspecified)
system.caches.MachineType.Directory.miss_mach_latency_hist_seqr::total      1160806                       (Unspecified)
system.caches.MachineType.Directory.miss_latency_hist_seqr.issue_to_initial_request::bucket_size            1                       (Unspecified)
system.caches.MachineType.Directory.miss_latency_hist_seqr.issue_to_initial_request::max_bucket            9                       (Unspecified)
system.caches.MachineType.Directory.miss_latency_hist_seqr.issue_to_initial_request::samples            1                       (Unspecified)
system.caches.MachineType.Directory.miss_latency_hist_seqr.issue_to_initial_request::stdev          nan                       (Unspecified)
system.caches.MachineType.Directory.miss_latency_hist_seqr.issue_to_initial_request |           1    100.00%    100.00% |           0      0.00%    100.00% |           0      0.00%    100.00% |           0      0.00%    100.00% |           0      0.00%    100.00% |           0      0.00%    100.00% |           0      0.00%    100.00% |           0      0.00%    100.00% |           0      0.00%    100.00% |           0      0.00%    100.00% (Unspecified)
system.caches.MachineType.Directory.miss_latency_hist_seqr.issue_to_initial_request::total            1                       (Unspecified)
system.caches.MachineType.Directory.miss_latency_hist_seqr.initial_to_forward::bucket_size            1                       (Unspecified)
system.caches.MachineType.Directory.miss_latency_hist_seqr.initial_to_forward::max_bucket            9                       (Unspecified)
system.caches.MachineType.Directory.miss_latency_hist_seqr.initial_to_forward::samples            1                       (Unspecified)
system.caches.MachineType.Directory.miss_latency_hist_seqr.initial_to_forward::stdev          nan                       (Unspecified)
system.caches.MachineType.Directory.miss_latency_hist_seqr.initial_to_forward |           1    100.00%    100.00% |           0      0.00%    100.00% |           0      0.00%    100.00% |           0      0.00%    100.00% |           0      0.00%    100.00% |           0      0.00%    100.00% |           0      0.00%    100.00% |           0      0.00%    100.00% |           0      0.00%    100.00% |           0      0.00%    100.00% (Unspecified)
system.caches.MachineType.Directory.miss_latency_hist_seqr.initial_to_forward::total            1                       (Unspecified)
system.caches.MachineType.Directory.miss_latency_hist_seqr.forward_to_first_response::bucket_size            1                       (Unspecified)
system.caches.MachineType.Directory.miss_latency_hist_seqr.forward_to_first_response::max_bucket            9                       (Unspecified)
system.caches.MachineType.Directory.miss_latency_hist_seqr.forward_to_first_response::samples            1                       (Unspecified)
system.caches.MachineType.Directory.miss_latency_hist_seqr.forward_to_first_response::stdev          nan                       (Unspecified)
system.caches.MachineType.Directory.miss_latency_hist_seqr.forward_to_first_response |           1    100.00%    100.00% |           0      0.00%    100.00% |           0      0.00%    100.00% |           0      0.00%    100.00% |           0      0.00%    100.00% |           0      0.00%    100.00% |           0      0.00%    100.00% |           0      0.00%    100.00% |           0      0.00%    100.00% |           0      0.00%    100.00% (Unspecified)
system.caches.MachineType.Directory.miss_latency_hist_seqr.forward_to_first_response::total            1                       (Unspecified)
system.caches.MachineType.Directory.miss_latency_hist_seqr.first_response_to_completion::bucket_size            8                       (Unspecified)
system.caches.MachineType.Directory.miss_latency_hist_seqr.first_response_to_completion::max_bucket           79                       (Unspecified)
system.caches.MachineType.Directory.miss_latency_hist_seqr.first_response_to_completion::samples            1                       (Unspecified)
system.caches.MachineType.Directory.miss_latency_hist_seqr.first_response_to_completion::mean           73                       (Unspecified)
system.caches.MachineType.Directory.miss_latency_hist_seqr.first_response_to_completion::gmean    73.000000                       (Unspecified)
system.caches.MachineType.Directory.miss_latency_hist_seqr.first_response_to_completion::stdev          nan                       (Unspecified)
system.caches.MachineType.Directory.miss_latency_hist_seqr.first_response_to_completion |           0      0.00%      0.00% |           0      0.00%      0.00% |           0      0.00%      0.00% |           0      0.00%      0.00% |           0      0.00%      0.00% |           0      0.00%      0.00% |           0      0.00%      0.00% |           0      0.00%      0.00% |           0      0.00%      0.00% |           1    100.00%    100.00% (Unspecified)
system.caches.MachineType.Directory.miss_latency_hist_seqr.first_response_to_completion::total            1                       (Unspecified)
system.caches.MachineType.Directory.incomplete_times_seqr      1160805                       (Unspecified)
system.caches.RequestType.LD.latency_hist_seqr::bucket_size           64                       (Unspecified)
system.caches.RequestType.LD.latency_hist_seqr::max_bucket          639                       (Unspecified)
system.caches.RequestType.LD.latency_hist_seqr::samples      8995146                       (Unspecified)
system.caches.RequestType.LD.latency_hist_seqr::mean     3.480476                       (Unspecified)
system.caches.RequestType.LD.latency_hist_seqr::gmean     1.211083                       (Unspecified)
system.caches.RequestType.LD.latency_hist_seqr::stdev    13.678492                       (Unspecified)
system.caches.RequestType.LD.latency_hist_seqr |     8916076     99.12%     99.12% |       56934      0.63%     99.75% |       16610      0.18%     99.94% |        3296      0.04%     99.98% |        1279      0.01%     99.99% |         708      0.01%    100.00% |         126      0.00%    100.00% |          93      0.00%    100.00% |          24      0.00%    100.00% |           0      0.00%    100.00% (Unspecified)
system.caches.RequestType.LD.latency_hist_seqr::total      8995146                       (Unspecified)
system.caches.RequestType.LD.hit_latency_hist_seqr::bucket_size            8                       (Unspecified)
system.caches.RequestType.LD.hit_latency_hist_seqr::max_bucket           79                       (Unspecified)
system.caches.RequestType.LD.hit_latency_hist_seqr::samples      8581777                       (Unspecified)
system.caches.RequestType.LD.hit_latency_hist_seqr::mean     1.098453                       (Unspecified)
system.caches.RequestType.LD.hit_latency_hist_seqr::gmean     1.017264                       (Unspecified)
system.caches.RequestType.LD.hit_latency_hist_seqr::stdev     1.320611                       (Unspecified)
system.caches.RequestType.LD.hit_latency_hist_seqr |     8533244     99.43%     99.43% |       12271      0.14%     99.58% |       31755      0.37%     99.95% |        4419      0.05%    100.00% |          67      0.00%    100.00% |          17      0.00%    100.00% |           3      0.00%    100.00% |           1      0.00%    100.00% |           0      0.00%    100.00% |           0      0.00%    100.00% (Unspecified)
system.caches.RequestType.LD.hit_latency_hist_seqr::total      8581777                       (Unspecified)
system.caches.RequestType.LD.miss_latency_hist_seqr::bucket_size           64                       (Unspecified)
system.caches.RequestType.LD.miss_latency_hist_seqr::max_bucket          639                       (Unspecified)
system.caches.RequestType.LD.miss_latency_hist_seqr::samples       413369                       (Unspecified)
system.caches.RequestType.LD.miss_latency_hist_seqr::mean    52.932641                       (Unspecified)
system.caches.RequestType.LD.miss_latency_hist_seqr::gmean    45.246946                       (Unspecified)
system.caches.RequestType.LD.miss_latency_hist_seqr::stdev    38.365495                       (Unspecified)
system.caches.RequestType.LD.miss_latency_hist_seqr |      334299     80.87%     80.87% |       56934     13.77%     94.64% |       16610      4.02%     98.66% |        3296      0.80%     99.46% |        1279      0.31%     99.77% |         708      0.17%     99.94% |         126      0.03%     99.97% |          93      0.02%     99.99% |          24      0.01%    100.00% |           0      0.00%    100.00% (Unspecified)
system.caches.RequestType.LD.miss_latency_hist_seqr::total       413369                       (Unspecified)
system.caches.RequestType.ST.latency_hist_seqr::bucket_size           64                       (Unspecified)
system.caches.RequestType.ST.latency_hist_seqr::max_bucket          639                       (Unspecified)
system.caches.RequestType.ST.latency_hist_seqr::samples     10484930                       (Unspecified)
system.caches.RequestType.ST.latency_hist_seqr::mean     1.869867                       (Unspecified)
system.caches.RequestType.ST.latency_hist_seqr::gmean     1.095803                       (Unspecified)
system.caches.RequestType.ST.latency_hist_seqr::stdev     7.126617                       (Unspecified)
system.caches.RequestType.ST.latency_hist_seqr |    10453463     99.70%     99.70% |       26434      0.25%     99.95% |        3988      0.04%     99.99% |         512      0.00%     99.99% |         318      0.00%    100.00% |         172      0.00%    100.00% |          31      0.00%    100.00% |          10      0.00%    100.00% |           2      0.00%    100.00% |           0      0.00%    100.00% (Unspecified)
system.caches.RequestType.ST.latency_hist_seqr::total     10484930                       (Unspecified)
system.caches.RequestType.ST.hit_latency_hist_seqr::bucket_size           32                       (Unspecified)
system.caches.RequestType.ST.hit_latency_hist_seqr::max_bucket          319                       (Unspecified)
system.caches.RequestType.ST.hit_latency_hist_seqr::samples     10291961                       (Unspecified)
system.caches.RequestType.ST.hit_latency_hist_seqr::mean     1.093710                       (Unspecified)
system.caches.RequestType.ST.hit_latency_hist_seqr::gmean     1.025389                       (Unspecified)
system.caches.RequestType.ST.hit_latency_hist_seqr::stdev     1.359840                       (Unspecified)
system.caches.RequestType.ST.hit_latency_hist_seqr |    10288058     99.96%     99.96% |        3844      0.04%    100.00% |          12      0.00%    100.00% |           5      0.00%    100.00% |          28      0.00%    100.00% |           9      0.00%    100.00% |           4      0.00%    100.00% |           1      0.00%    100.00% |           0      0.00%    100.00% |           0      0.00%    100.00% (Unspecified)
system.caches.RequestType.ST.hit_latency_hist_seqr::total     10291961                       (Unspecified)
system.caches.RequestType.ST.miss_latency_hist_seqr::bucket_size           64                       (Unspecified)
system.caches.RequestType.ST.miss_latency_hist_seqr::max_bucket          639                       (Unspecified)
system.caches.RequestType.ST.miss_latency_hist_seqr::samples       192969                       (Unspecified)
system.caches.RequestType.ST.miss_latency_hist_seqr::mean    43.266017                       (Unspecified)
system.caches.RequestType.ST.miss_latency_hist_seqr::gmean    37.853038                       (Unspecified)
system.caches.RequestType.ST.miss_latency_hist_seqr::stdev    30.252282                       (Unspecified)
system.caches.RequestType.ST.miss_latency_hist_seqr |      161561     83.72%     83.72% |       26417     13.69%     97.41% |        3951      2.05%     99.46% |         507      0.26%     99.72% |         318      0.16%     99.89% |         172      0.09%     99.98% |          31      0.02%     99.99% |          10      0.01%    100.00% |           2      0.00%    100.00% |           0      0.00%    100.00% (Unspecified)
system.caches.RequestType.ST.miss_latency_hist_seqr::total       192969                       (Unspecified)
system.caches.RequestType.IFETCH.latency_hist_seqr::bucket_size           64                       (Unspecified)
system.caches.RequestType.IFETCH.latency_hist_seqr::max_bucket          639                       (Unspecified)
system.caches.RequestType.IFETCH.latency_hist_seqr::samples      8651687                       (Unspecified)
system.caches.RequestType.IFETCH.latency_hist_seqr::mean     3.411892                       (Unspecified)
system.caches.RequestType.IFETCH.latency_hist_seqr::gmean     1.259581                       (Unspecified)
system.caches.RequestType.IFETCH.latency_hist_seqr::stdev    11.419630                       (Unspecified)
system.caches.RequestType.IFETCH.latency_hist_seqr |     8617465     99.60%     99.60% |       21019      0.24%     99.85% |       11188      0.13%     99.98% |         832      0.01%     99.99% |         632      0.01%     99.99% |         399      0.00%    100.00% |          93      0.00%    100.00% |          55      0.00%    100.00% |           4      0.00%    100.00% |           0      0.00%    100.00% (Unspecified)
system.caches.RequestType.IFETCH.latency_hist_seqr::total      8651687                       (Unspecified)
system.caches.RequestType.IFETCH.hit_latency_hist_seqr::bucket_size            8                       (Unspecified)
system.caches.RequestType.IFETCH.hit_latency_hist_seqr::max_bucket           79                       (Unspecified)
system.caches.RequestType.IFETCH.hit_latency_hist_seqr::samples      8100691                       (Unspecified)
system.caches.RequestType.IFETCH.hit_latency_hist_seqr::mean     1.031609                       (Unspecified)
system.caches.RequestType.IFETCH.hit_latency_hist_seqr::gmean     1.005929                       (Unspecified)
system.caches.RequestType.IFETCH.hit_latency_hist_seqr::stdev     0.722249                       (Unspecified)
system.caches.RequestType.IFETCH.hit_latency_hist_seqr |     8085517     99.81%     99.81% |        4341      0.05%     99.87% |       10650      0.13%    100.00% |         166      0.00%    100.00% |          14      0.00%    100.00% |           3      0.00%    100.00% |           0      0.00%    100.00% |           0      0.00%    100.00% |           0      0.00%    100.00% |           0      0.00%    100.00% (Unspecified)
system.caches.RequestType.IFETCH.hit_latency_hist_seqr::total      8100691                       (Unspecified)
system.caches.RequestType.IFETCH.miss_latency_hist_seqr::bucket_size           64                       (Unspecified)
system.caches.RequestType.IFETCH.miss_latency_hist_seqr::max_bucket          639                       (Unspecified)
system.caches.RequestType.IFETCH.miss_latency_hist_seqr::samples       550996                       (Unspecified)
system.caches.RequestType.IFETCH.miss_latency_hist_seqr::mean    38.406578                       (Unspecified)
system.caches.RequestType.IFETCH.miss_latency_hist_seqr::gmean    34.355604                       (Unspecified)
system.caches.RequestType.IFETCH.miss_latency_hist_seqr::stdev    27.056604                       (Unspecified)
system.caches.RequestType.IFETCH.miss_latency_hist_seqr |      516774     93.79%     93.79% |       21019      3.81%     97.60% |       11188      2.03%     99.63% |         832      0.15%     99.79% |         632      0.11%     99.90% |         399      0.07%     99.97% |          93      0.02%     99.99% |          55      0.01%    100.00% |           4      0.00%    100.00% |           0      0.00%    100.00% (Unspecified)
system.caches.RequestType.IFETCH.miss_latency_hist_seqr::total       550996                       (Unspecified)
system.caches.RequestType.RMW_Read.latency_hist_seqr::bucket_size           64                       (Unspecified)
system.caches.RequestType.RMW_Read.latency_hist_seqr::max_bucket          639                       (Unspecified)
system.caches.RequestType.RMW_Read.latency_hist_seqr::samples       494471                       (Unspecified)
system.caches.RequestType.RMW_Read.latency_hist_seqr::mean     2.022175                       (Unspecified)
system.caches.RequestType.RMW_Read.latency_hist_seqr::gmean     1.281902                       (Unspecified)
system.caches.RequestType.RMW_Read.latency_hist_seqr::stdev     7.660940                       (Unspecified)
system.caches.RequestType.RMW_Read.latency_hist_seqr |      492430     99.59%     99.59% |        1672      0.34%     99.93% |         279      0.06%     99.98% |          57      0.01%     99.99% |          18      0.00%    100.00% |          10      0.00%    100.00% |           3      0.00%    100.00% |           1      0.00%    100.00% |           1      0.00%    100.00% |           0      0.00%    100.00% (Unspecified)
system.caches.RequestType.RMW_Read.latency_hist_seqr::total       494471                       (Unspecified)
system.caches.RequestType.RMW_Read.hit_latency_hist_seqr::bucket_size           64                       (Unspecified)
system.caches.RequestType.RMW_Read.hit_latency_hist_seqr::max_bucket          639                       (Unspecified)
system.caches.RequestType.RMW_Read.hit_latency_hist_seqr::samples       490999                       (Unspecified)
system.caches.RequestType.RMW_Read.hit_latency_hist_seqr::mean     1.537374                       (Unspecified)
system.caches.RequestType.RMW_Read.hit_latency_hist_seqr::gmean     1.247637                       (Unspecified)
system.caches.RequestType.RMW_Read.hit_latency_hist_seqr::stdev     3.258576                       (Unspecified)
system.caches.RequestType.RMW_Read.hit_latency_hist_seqr |      490843     99.97%     99.97% |         107      0.02%     99.99% |          37      0.01%    100.00% |           8      0.00%    100.00% |           1      0.00%    100.00% |           1      0.00%    100.00% |           2      0.00%    100.00% |           0      0.00%    100.00% |           0      0.00%    100.00% |           0      0.00%    100.00% (Unspecified)
system.caches.RequestType.RMW_Read.hit_latency_hist_seqr::total       490999                       (Unspecified)
system.caches.RequestType.RMW_Read.miss_latency_hist_seqr::bucket_size           64                       (Unspecified)
system.caches.RequestType.RMW_Read.miss_latency_hist_seqr::max_bucket          639                       (Unspecified)
system.caches.RequestType.RMW_Read.miss_latency_hist_seqr::samples         3472                       (Unspecified)
system.caches.RequestType.RMW_Read.miss_latency_hist_seqr::mean    70.581221                       (Unspecified)
system.caches.RequestType.RMW_Read.miss_latency_hist_seqr::gmean    59.134287                       (Unspecified)
system.caches.RequestType.RMW_Read.miss_latency_hist_seqr::stdev    46.085228                       (Unspecified)
system.caches.RequestType.RMW_Read.miss_latency_hist_seqr |        1587     45.71%     45.71% |        1565     45.07%     90.78% |         242      6.97%     97.75% |          49      1.41%     99.16% |          17      0.49%     99.65% |           9      0.26%     99.91% |           1      0.03%     99.94% |           1      0.03%     99.97% |           1      0.03%    100.00% |           0      0.00%    100.00% (Unspecified)
system.caches.RequestType.RMW_Read.miss_latency_hist_seqr::total         3472                       (Unspecified)
system.caches.RequestTypeMachineType.LD.Directory.miss_type_mach_latency_hist_seqr::bucket_size           64                       (Unspecified)
system.caches.RequestTypeMachineType.LD.Directory.miss_type_mach_latency_hist_seqr::max_bucket          639                       (Unspecified)
system.caches.RequestTypeMachineType.LD.Directory.miss_type_mach_latency_hist_seqr::samples       413369                       (Unspecified)
system.caches.RequestTypeMachineType.LD.Directory.miss_type_mach_latency_hist_seqr::mean    52.932641                       (Unspecified)
system.caches.RequestTypeMachineType.LD.Directory.miss_type_mach_latency_hist_seqr::gmean    45.246946                       (Unspecified)
system.caches.RequestTypeMachineType.LD.Directory.miss_type_mach_latency_hist_seqr::stdev    38.365495                       (Unspecified)
system.caches.RequestTypeMachineType.LD.Directory.miss_type_mach_latency_hist_seqr |      334299     80.87%     80.87% |       56934     13.77%     94.64% |       16610      4.02%     98.66% |        3296      0.80%     99.46% |        1279      0.31%     99.77% |         708      0.17%     99.94% |         126      0.03%     99.97% |          93      0.02%     99.99% |          24      0.01%    100.00% |           0      0.00%    100.00% (Unspecified)
system.caches.RequestTypeMachineType.LD.Directory.miss_type_mach_latency_hist_seqr::total       413369                       (Unspecified)
system.caches.RequestTypeMachineType.ST.Directory.miss_type_mach_latency_hist_seqr::bucket_size           64                       (Unspecified)
system.caches.RequestTypeMachineType.ST.Directory.miss_type_mach_latency_hist_seqr::max_bucket          639                       (Unspecified)
system.caches.RequestTypeMachineType.ST.Directory.miss_type_mach_latency_hist_seqr::samples       192969                       (Unspecified)
system.caches.RequestTypeMachineType.ST.Directory.miss_type_mach_latency_hist_seqr::mean    43.266017                       (Unspecified)
system.caches.RequestTypeMachineType.ST.Directory.miss_type_mach_latency_hist_seqr::gmean    37.853038                       (Unspecified)
system.caches.RequestTypeMachineType.ST.Directory.miss_type_mach_latency_hist_seqr::stdev    30.252282                       (Unspecified)
system.caches.RequestTypeMachineType.ST.Directory.miss_type_mach_latency_hist_seqr |      161561     83.72%     83.72% |       26417     13.69%     97.41% |        3951      2.05%     99.46% |         507      0.26%     99.72% |         318      0.16%     99.89% |         172      0.09%     99.98% |          31      0.02%     99.99% |          10      0.01%    100.00% |           2      0.00%    100.00% |           0      0.00%    100.00% (Unspecified)
system.caches.RequestTypeMachineType.ST.Directory.miss_type_mach_latency_hist_seqr::total       192969                       (Unspecified)
system.caches.RequestTypeMachineType.IFETCH.Directory.miss_type_mach_latency_hist_seqr::bucket_size           64                       (Unspecified)
system.caches.RequestTypeMachineType.IFETCH.Directory.miss_type_mach_latency_hist_seqr::max_bucket          639                       (Unspecified)
system.caches.RequestTypeMachineType.IFETCH.Directory.miss_type_mach_latency_hist_seqr::samples       550996                       (Unspecified)
system.caches.RequestTypeMachineType.IFETCH.Directory.miss_type_mach_latency_hist_seqr::mean    38.406578                       (Unspecified)
system.caches.RequestTypeMachineType.IFETCH.Directory.miss_type_mach_latency_hist_seqr::gmean    34.355604                       (Unspecified)
system.caches.RequestTypeMachineType.IFETCH.Directory.miss_type_mach_latency_hist_seqr::stdev    27.056604                       (Unspecified)
system.caches.RequestTypeMachineType.IFETCH.Directory.miss_type_mach_latency_hist_seqr |      516774     93.79%     93.79% |       21019      3.81%     97.60% |       11188      2.03%     99.63% |         832      0.15%     99.79% |         632      0.11%     99.90% |         399      0.07%     99.97% |          93      0.02%     99.99% |          55      0.01%    100.00% |           4      0.00%    100.00% |           0      0.00%    100.00% (Unspecified)
system.caches.RequestTypeMachineType.IFETCH.Directory.miss_type_mach_latency_hist_seqr::total       550996                       (Unspecified)
system.caches.RequestTypeMachineType.RMW_Read.Directory.miss_type_mach_latency_hist_seqr::bucket_size           64                       (Unspecified)
system.caches.RequestTypeMachineType.RMW_Read.Directory.miss_type_mach_latency_hist_seqr::max_bucket          639                       (Unspecified)
system.caches.RequestTypeMachineType.RMW_Read.Directory.miss_type_mach_latency_hist_seqr::samples         3472                       (Unspecified)
system.caches.RequestTypeMachineType.RMW_Read.Directory.miss_type_mach_latency_hist_seqr::mean    70.581221                       (Unspecified)
system.caches.RequestTypeMachineType.RMW_Read.Directory.miss_type_mach_latency_hist_seqr::gmean    59.134287                       (Unspecified)
system.caches.RequestTypeMachineType.RMW_Read.Directory.miss_type_mach_latency_hist_seqr::stdev    46.085228                       (Unspecified)
system.caches.RequestTypeMachineType.RMW_Read.Directory.miss_type_mach_latency_hist_seqr |        1587     45.71%     45.71% |        1565     45.07%     90.78% |         242      6.97%     97.75% |          49      1.41%     99.16% |          17      0.49%     99.65% |           9      0.26%     99.91% |           1      0.03%     99.94% |           1      0.03%     99.97% |           1      0.03%    100.00% |           0      0.00%    100.00% (Unspecified)
system.caches.RequestTypeMachineType.RMW_Read.Directory.miss_type_mach_latency_hist_seqr::total         3472                       (Unspecified)
system.caches.controllers0.delayHistogram::samples      2321580                       # delay_histogram (Unspecified)
system.caches.controllers0.delayHistogram::mean     0.422637                       # delay_histogram (Unspecified)
system.caches.controllers0.delayHistogram::stdev     1.700666                       # delay_histogram (Unspecified)
system.caches.controllers0.delayHistogram::0-7      2312558     99.61%     99.61% # delay_histogram (Unspecified)
system.caches.controllers0.delayHistogram::8-15         5686      0.24%     99.86% # delay_histogram (Unspecified)
system.caches.controllers0.delayHistogram::16-23         2076      0.09%     99.95% # delay_histogram (Unspecified)
system.caches.controllers0.delayHistogram::24-31          809      0.03%     99.98% # delay_histogram (Unspecified)
system.caches.controllers0.delayHistogram::32-39          310      0.01%     99.99% # delay_histogram (Unspecified)
system.caches.controllers0.delayHistogram::40-47           91      0.00%    100.00% # delay_histogram (Unspecified)
system.caches.controllers0.delayHistogram::48-55           39      0.00%    100.00% # delay_histogram (Unspecified)
system.caches.controllers0.delayHistogram::56-63            7      0.00%    100.00% # delay_histogram (Unspecified)
system.caches.controllers0.delayHistogram::64-71            3      0.00%    100.00% # delay_histogram (Unspecified)
system.caches.controllers0.delayHistogram::72-79            1      0.00%    100.00% # delay_histogram (Unspecified)
system.caches.controllers0.delayHistogram::total      2321580                       # delay_histogram (Unspecified)
system.caches.controllers0.cacheMemory.m_demand_hits     27465428                       # Number of cache demand hits (Unspecified)
system.caches.controllers0.cacheMemory.m_demand_misses      1160807                       # Number of cache demand misses (Unspecified)
system.caches.controllers0.cacheMemory.m_demand_accesses     28626235                       # Number of cache demand accesses (Unspecified)
system.caches.controllers0.forwardToCache.m_buf_msgs     0.015143                       # Average number of messages in buffer (Unspecified)
system.caches.controllers0.forwardToCache.m_stall_time  5322.757247                       # Average number of cycles messages are stalled in this MB (Unspecified)
system.caches.controllers0.mandatoryQueue.m_buf_msgs     0.420173                       # Average number of messages in buffer (Unspecified)
system.caches.controllers0.mandatoryQueue.m_stall_time  1180.380524                       # Average number of cycles messages are stalled in this MB (Unspecified)
system.caches.controllers0.power_state.pwrStateResidencyTicks::UNDEFINED  76655360000                       # Cumulative time (in ticks) in various power states (Tick)
system.caches.controllers0.requestFromCache.m_buf_msgs     0.060572                       # Average number of messages in buffer (Unspecified)
system.caches.controllers0.requestFromCache.m_stall_time  1999.999922                       # Average number of cycles messages are stalled in this MB (Unspecified)
system.caches.controllers0.responseToCache.m_buf_msgs     0.015143                       # Average number of messages in buffer (Unspecified)
system.caches.controllers0.responseToCache.m_stall_time  5021.172910                       # Average number of cycles messages are stalled in this MB (Unspecified)
system.caches.controllers1.forwardFromDir.m_buf_msgs     0.015143                       # Average number of messages in buffer (Unspecified)
system.caches.controllers1.forwardFromDir.m_stall_time   999.989251                       # Average number of cycles messages are stalled in this MB (Unspecified)
system.caches.controllers1.power_state.pwrStateResidencyTicks::UNDEFINED  76655360000                       # Cumulative time (in ticks) in various power states (Tick)
system.caches.controllers1.requestToDir.m_buf_msgs     0.030286                       # Average number of messages in buffer (Unspecified)
system.caches.controllers1.requestToDir.m_stall_time  9587.747080                       # Average number of cycles messages are stalled in this MB (Unspecified)
system.caches.controllers1.requestToMemory.m_buf_msgs     0.030391                       # Average number of messages in buffer (Unspecified)
system.caches.controllers1.requestToMemory.m_stall_time  1000.529591                       # Average number of cycles messages are stalled in this MB (Unspecified)
system.caches.controllers1.responseFromDir.m_buf_msgs     0.015143                       # Average number of messages in buffer (Unspecified)
system.caches.controllers1.responseFromDir.m_stall_time   999.999100                       # Average number of cycles messages are stalled in this MB (Unspecified)
system.caches.controllers1.responseFromMemory.m_buf_msgs     0.031841                       # Average number of messages in buffer (Unspecified)
system.caches.controllers1.responseFromMemory.m_stall_time   999.999113                       # Average number of cycles messages are stalled in this MB (Unspecified)
system.caches.network.msg_count.Control       2321612                       (Unspecified)
system.caches.network.msg_byte.Control       18572896                       (Unspecified)
system.caches.network.msg_count.Data          2321549                       (Unspecified)
system.caches.network.msg_byte.Data         167151528                       (Unspecified)
system.caches.network.msg_count.Response_Data      2321612                       (Unspecified)
system.caches.network.msg_byte.Response_Data    167156064                       (Unspecified)
system.caches.network.msg_count.Writeback_Control      2321548                       (Unspecified)
system.caches.network.msg_byte.Writeback_Control     18572384                       (Unspecified)
system.caches.network.int_link_buffers2.m_buf_msgs     0.030286                       # Average number of messages in buffer (Unspecified)
system.caches.network.int_link_buffers2.m_stall_time  7587.747471                       # Average number of cycles messages are stalled in this MB (Unspecified)
system.caches.network.int_link_buffers8.m_buf_msgs     0.015143                       # Average number of messages in buffer (Unspecified)
system.caches.network.int_link_buffers8.m_stall_time  3322.778929                       # Average number of cycles messages are stalled in this MB (Unspecified)
system.caches.network.int_link_buffers9.m_buf_msgs     0.015143                       # Average number of messages in buffer (Unspecified)
system.caches.network.int_link_buffers9.m_stall_time  3021.174892                       # Average number of cycles messages are stalled in this MB (Unspecified)
system.caches.network.power_state.pwrStateResidencyTicks::UNDEFINED  76655360000                       # Cumulative time (in ticks) in various power states (Tick)
system.caches.network.routers0.percent_links_utilized     7.571487                       (Unspecified)
system.caches.network.routers0.msg_count.Control::2      1160806                       (Unspecified)
system.caches.network.routers0.msg_bytes.Control::2      9286448                       (Unspecified)
system.caches.network.routers0.msg_count.Data::2      1160775                       (Unspecified)
system.caches.network.routers0.msg_bytes.Data::2     83575800                       (Unspecified)
system.caches.network.routers0.msg_count.Response_Data::4      1160806                       (Unspecified)
system.caches.network.routers0.msg_bytes.Response_Data::4     83578032                       (Unspecified)
system.caches.network.routers0.msg_count.Writeback_Control::3      1160774                       (Unspecified)
system.caches.network.routers0.msg_bytes.Writeback_Control::3      9286192                       (Unspecified)
system.caches.network.routers0.port_buffers3.m_buf_msgs     0.015143                       # Average number of messages in buffer (Unspecified)
system.caches.network.routers0.port_buffers3.m_stall_time  4322.768101                       # Average number of cycles messages are stalled in this MB (Unspecified)
system.caches.network.routers0.port_buffers4.m_buf_msgs     0.015143                       # Average number of messages in buffer (Unspecified)
system.caches.network.routers0.port_buffers4.m_stall_time  4021.173914                       # Average number of cycles messages are stalled in this MB (Unspecified)
system.caches.network.routers0.port_buffers7.m_buf_msgs     0.100816                       # Average number of messages in buffer (Unspecified)
system.caches.network.routers0.port_buffers7.m_stall_time  6587.747628                       # Average number of cycles messages are stalled in this MB (Unspecified)
system.caches.network.routers0.power_state.pwrStateResidencyTicks::UNDEFINED  76655360000                       # Cumulative time (in ticks) in various power states (Tick)
system.caches.network.routers0.throttle00.link_utilization     7.571570                       (Unspecified)
system.caches.network.routers0.throttle00.msg_count.Response_Data::4      1160806                       (Unspecified)
system.caches.network.routers0.throttle00.msg_bytes.Response_Data::4     83578032                       (Unspecified)
system.caches.network.routers0.throttle00.msg_count.Writeback_Control::3      1160774                       (Unspecified)
system.caches.network.routers0.throttle00.msg_bytes.Writeback_Control::3      9286192                       (Unspecified)
system.caches.network.routers0.throttle01.link_utilization     7.571404                       (Unspecified)
system.caches.network.routers0.throttle01.msg_count.Control::2      1160806                       (Unspecified)
system.caches.network.routers0.throttle01.msg_bytes.Control::2      9286448                       (Unspecified)
system.caches.network.routers0.throttle01.msg_count.Data::2      1160775                       (Unspecified)
system.caches.network.routers0.throttle01.msg_bytes.Data::2     83575800                       (Unspecified)
system.caches.network.routers1.percent_links_utilized     7.571486                       (Unspecified)
system.caches.network.routers1.msg_count.Control::2      1160806                       (Unspecified)
system.caches.network.routers1.msg_bytes.Control::2      9286448                       (Unspecified)
system.caches.network.routers1.msg_count.Data::2      1160774                       (Unspecified)
system.caches.network.routers1.msg_bytes.Data::2     83575728                       (Unspecified)
system.caches.network.routers1.msg_count.Response_Data::4      1160806                       (Unspecified)
system.caches.network.routers1.msg_bytes.Response_Data::4     83578032                       (Unspecified)
system.caches.network.routers1.msg_count.Writeback_Control::3      1160774                       (Unspecified)
system.caches.network.routers1.msg_bytes.Writeback_Control::3      9286192                       (Unspecified)
system.caches.network.routers1.port_buffers2.m_buf_msgs     0.030286                       # Average number of messages in buffer (Unspecified)
system.caches.network.routers1.port_buffers2.m_stall_time  8587.747289                       # Average number of cycles messages are stalled in this MB (Unspecified)
system.caches.network.routers1.port_buffers6.m_buf_msgs     0.021127                       # Average number of messages in buffer (Unspecified)
system.caches.network.routers1.port_buffers6.m_stall_time  2322.789731                       # Average number of cycles messages are stalled in this MB (Unspecified)
system.caches.network.routers1.port_buffers7.m_buf_msgs     0.015559                       # Average number of messages in buffer (Unspecified)
system.caches.network.routers1.port_buffers7.m_stall_time  2021.175845                       # Average number of cycles messages are stalled in this MB (Unspecified)
system.caches.network.routers1.power_state.pwrStateResidencyTicks::UNDEFINED  76655360000                       # Cumulative time (in ticks) in various power states (Tick)
system.caches.network.routers1.throttle00.link_utilization     7.571403                       (Unspecified)
system.caches.network.routers1.throttle00.msg_count.Control::2      1160806                       (Unspecified)
system.caches.network.routers1.throttle00.msg_bytes.Control::2      9286448                       (Unspecified)
system.caches.network.routers1.throttle00.msg_count.Data::2      1160774                       (Unspecified)
system.caches.network.routers1.throttle00.msg_bytes.Data::2     83575728                       (Unspecified)
system.caches.network.routers1.throttle01.link_utilization     7.571570                       (Unspecified)
system.caches.network.routers1.throttle01.msg_count.Response_Data::4      1160806                       (Unspecified)
system.caches.network.routers1.throttle01.msg_bytes.Response_Data::4     83578032                       (Unspecified)
system.caches.network.routers1.throttle01.msg_count.Writeback_Control::3      1160774                       (Unspecified)
system.caches.network.routers1.throttle01.msg_bytes.Writeback_Control::3      9286192                       (Unspecified)
system.caches.power_state.pwrStateResidencyTicks::UNDEFINED  76655360000                       # Cumulative time (in ticks) in various power states (Tick)
system.caches.sequencers.power_state.pwrStateResidencyTicks::UNDEFINED  76655360000                       # Cumulative time (in ticks) in various power states (Tick)
system.caches.sys_port_proxy.power_state.pwrStateResidencyTicks::UNDEFINED  76655360000                       # Cumulative time (in ticks) in various power states (Tick)
system.clk_domain.clock                          1000                       # Clock period in ticks (Tick)
system.clk_domain.voltage_domain.voltage            1                       # Voltage in Volts (Volt)
system.cpu.numCycles                         76655361                       # Number of cpu cycles simulated (Cycle)
system.cpu.numWorkItemsStarted                      0                       # Number of work items this cpu started (Count)
system.cpu.numWorkItemsCompleted                    0                       # Number of work items this cpu completed (Count)
system.cpu.instsAdded                        98773766                       # Number of instructions added to the IQ (excludes non-spec) (Count)
system.cpu.nonSpecInstsAdded                   930080                       # Number of non-speculative instructions added to the IQ (Count)
system.cpu.instsIssued                       94514992                       # Number of instructions issued (Count)
system.cpu.squashedInstsIssued                   2050                       # Number of squashed instructions issued (Count)
system.cpu.squashedInstsExamined             16501871                       # Number of squashed instructions iterated over during squash; mainly for profiling (Count)
system.cpu.squashedOperandsExamined          19750568                       # Number of squashed operands that are examined and possibly removed from graph (Count)
system.cpu.squashedNonSpecRemoved               12440                       # Number of squashed non-spec instructions that were removed (Count)
system.cpu.numIssuedDist::samples            72679641                       # Number of insts issued each cycle (Count)
system.cpu.numIssuedDist::mean               1.300433                       # Number of insts issued each cycle (Count)
system.cpu.numIssuedDist::stdev              1.829855                       # Number of insts issued each cycle (Count)
system.cpu.numIssuedDist::underflows                0      0.00%      0.00% # Number of insts issued each cycle (Count)
system.cpu.numIssuedDist::0                  38873426     53.49%     53.49% # Number of insts issued each cycle (Count)
system.cpu.numIssuedDist::1                  10743336     14.78%     68.27% # Number of insts issued each cycle (Count)
system.cpu.numIssuedDist::2                   6845140      9.42%     77.69% # Number of insts issued each cycle (Count)
system.cpu.numIssuedDist::3                   5515177      7.59%     85.27% # Number of insts issued each cycle (Count)
system.cpu.numIssuedDist::4                   4006868      5.51%     90.79% # Number of insts issued each cycle (Count)
system.cpu.numIssuedDist::5                   3790486      5.22%     96.00% # Number of insts issued each cycle (Count)
system.cpu.numIssuedDist::6                   1994265      2.74%     98.75% # Number of insts issued each cycle (Count)
system.cpu.numIssuedDist::7                    697191      0.96%     99.71% # Number of insts issued each cycle (Count)
system.cpu.numIssuedDist::8                    213752      0.29%    100.00% # Number of insts issued each cycle (Count)
system.cpu.numIssuedDist::overflows                 0      0.00%    100.00% # Number of insts issued each cycle (Count)
system.cpu.numIssuedDist::min_value                 0                       # Number of insts issued each cycle (Count)
system.cpu.numIssuedDist::max_value                 8                       # Number of insts issued each cycle (Count)
system.cpu.numIssuedDist::total              72679641                       # Number of insts issued each cycle (Count)
system.cpu.statFuBusy::No_OpClass                   0      0.00%      0.00% # attempts to use FU when none available (Count)
system.cpu.statFuBusy::IntAlu                   44369     19.26%     19.26% # attempts to use FU when none available (Count)
system.cpu.statFuBusy::IntMult                      0      0.00%     19.26% # attempts to use FU when none available (Count)
system.cpu.statFuBusy::IntDiv                       0      0.00%     19.26% # attempts to use FU when none available (Count)
system.cpu.statFuBusy::FloatAdd                     0      0.00%     19.26% # attempts to use FU when none available (Count)
system.cpu.statFuBusy::FloatCmp                     0      0.00%     19.26% # attempts to use FU when none available (Count)
system.cpu.statFuBusy::FloatCvt                     0      0.00%     19.26% # attempts to use FU when none available (Count)
system.cpu.statFuBusy::FloatMult                    0      0.00%     19.26% # attempts to use FU when none available (Count)
system.cpu.statFuBusy::FloatMultAcc                 0      0.00%     19.26% # attempts to use FU when none available (Count)
system.cpu.statFuBusy::FloatDiv                     0      0.00%     19.26% # attempts to use FU when none available (Count)
system.cpu.statFuBusy::FloatMisc                    0      0.00%     19.26% # attempts to use FU when none available (Count)
system.cpu.statFuBusy::FloatSqrt                    0      0.00%     19.26% # attempts to use FU when none available (Count)
system.cpu.statFuBusy::SimdAdd                      0      0.00%     19.26% # attempts to use FU when none available (Count)
system.cpu.statFuBusy::SimdAddAcc                   0      0.00%     19.26% # attempts to use FU when none available (Count)
system.cpu.statFuBusy::SimdAlu                     37      0.02%     19.28% # attempts to use FU when none available (Count)
system.cpu.statFuBusy::SimdCmp                      0      0.00%     19.28% # attempts to use FU when none available (Count)
system.cpu.statFuBusy::SimdCvt                     88      0.04%     19.32% # attempts to use FU when none available (Count)
system.cpu.statFuBusy::SimdMisc                     4      0.00%     19.32% # attempts to use FU when none available (Count)
system.cpu.statFuBusy::SimdMult                     0      0.00%     19.32% # attempts to use FU when none available (Count)
system.cpu.statFuBusy::SimdMultAcc                  0      0.00%     19.32% # attempts to use FU when none available (Count)
system.cpu.statFuBusy::SimdShift                   14      0.01%     19.32% # attempts to use FU when none available (Count)
system.cpu.statFuBusy::SimdShiftAcc                 0      0.00%     19.32% # attempts to use FU when none available (Count)
system.cpu.statFuBusy::SimdDiv                      0      0.00%     19.32% # attempts to use FU when none available (Count)
system.cpu.statFuBusy::SimdSqrt                     0      0.00%     19.32% # attempts to use FU when none available (Count)
system.cpu.statFuBusy::SimdFloatAdd                 0      0.00%     19.32% # attempts to use FU when none available (Count)
system.cpu.statFuBusy::SimdFloatAlu                 0      0.00%     19.32% # attempts to use FU when none available (Count)
system.cpu.statFuBusy::SimdFloatCmp                 0      0.00%     19.32% # attempts to use FU when none available (Count)
system.cpu.statFuBusy::SimdFloatCvt                 0      0.00%     19.32% # attempts to use FU when none available (Count)
system.cpu.statFuBusy::SimdFloatDiv                 0      0.00%     19.32% # attempts to use FU when none available (Count)
system.cpu.statFuBusy::SimdFloatMisc                0      0.00%     19.32% # attempts to use FU when none available (Count)
system.cpu.statFuBusy::SimdFloatMult                0      0.00%     19.32% # attempts to use FU when none available (Count)
system.cpu.statFuBusy::SimdFloatMultAcc             0      0.00%     19.32% # attempts to use FU when none available (Count)
system.cpu.statFuBusy::SimdFloatSqrt                0      0.00%     19.32% # attempts to use FU when none available (Count)
system.cpu.statFuBusy::SimdReduceAdd                0      0.00%     19.32% # attempts to use FU when none available (Count)
system.cpu.statFuBusy::SimdReduceAlu                0      0.00%     19.32% # attempts to use FU when none available (Count)
system.cpu.statFuBusy::SimdReduceCmp                0      0.00%     19.32% # attempts to use FU when none available (Count)
system.cpu.statFuBusy::SimdFloatReduceAdd            0      0.00%     19.32% # attempts to use FU when none available (Count)
system.cpu.statFuBusy::SimdFloatReduceCmp            0      0.00%     19.32% # attempts to use FU when none available (Count)
system.cpu.statFuBusy::SimdAes                      0      0.00%     19.32% # attempts to use FU when none available (Count)
system.cpu.statFuBusy::SimdAesMix                   0      0.00%     19.32% # attempts to use FU when none available (Count)
system.cpu.statFuBusy::SimdSha1Hash                 0      0.00%     19.32% # attempts to use FU when none available (Count)
system.cpu.statFuBusy::SimdSha1Hash2                0      0.00%     19.32% # attempts to use FU when none available (Count)
system.cpu.statFuBusy::SimdSha256Hash               0      0.00%     19.32% # attempts to use FU when none available (Count)
system.cpu.statFuBusy::SimdSha256Hash2              0      0.00%     19.32% # attempts to use FU when none available (Count)
system.cpu.statFuBusy::SimdShaSigma2                0      0.00%     19.32% # attempts to use FU when none available (Count)
system.cpu.statFuBusy::SimdShaSigma3                0      0.00%     19.32% # attempts to use FU when none available (Count)
system.cpu.statFuBusy::SimdPredAlu                  0      0.00%     19.32% # attempts to use FU when none available (Count)
system.cpu.statFuBusy::MemRead                 180467     78.35%     97.67% # attempts to use FU when none available (Count)
system.cpu.statFuBusy::MemWrite                  4953      2.15%     99.82% # attempts to use FU when none available (Count)
system.cpu.statFuBusy::FloatMemRead               276      0.12%     99.94% # attempts to use FU when none available (Count)
system.cpu.statFuBusy::FloatMemWrite              130      0.06%    100.00% # attempts to use FU when none available (Count)
system.cpu.statFuBusy::IprAccess                    0      0.00%    100.00% # attempts to use FU when none available (Count)
system.cpu.statFuBusy::InstPrefetch                 0      0.00%    100.00% # attempts to use FU when none available (Count)
system.cpu.statIssuedInstType_0::No_OpClass      1658709      1.75%      1.75% # Number of instructions issued per FU type, per thread (Count)
system.cpu.statIssuedInstType_0::IntAlu      55145676     58.35%     60.10% # Number of instructions issued per FU type, per thread (Count)
system.cpu.statIssuedInstType_0::IntMult         1916      0.00%     60.10% # Number of instructions issued per FU type, per thread (Count)
system.cpu.statIssuedInstType_0::IntDiv         41704      0.04%     60.15% # Number of instructions issued per FU type, per thread (Count)
system.cpu.statIssuedInstType_0::FloatAdd      1881456      1.99%     62.14% # Number of instructions issued per FU type, per thread (Count)
system.cpu.statIssuedInstType_0::FloatCmp            0      0.00%     62.14% # Number of instructions issued per FU type, per thread (Count)
system.cpu.statIssuedInstType_0::FloatCvt       262384      0.28%     62.42% # Number of instructions issued per FU type, per thread (Count)
system.cpu.statIssuedInstType_0::FloatMult       262144      0.28%     62.69% # Number of instructions issued per FU type, per thread (Count)
system.cpu.statIssuedInstType_0::FloatMultAcc            0      0.00%     62.69% # Number of instructions issued per FU type, per thread (Count)
system.cpu.statIssuedInstType_0::FloatDiv            0      0.00%     62.69% # Number of instructions issued per FU type, per thread (Count)
system.cpu.statIssuedInstType_0::FloatMisc            0      0.00%     62.69% # Number of instructions issued per FU type, per thread (Count)
system.cpu.statIssuedInstType_0::FloatSqrt            0      0.00%     62.69% # Number of instructions issued per FU type, per thread (Count)
system.cpu.statIssuedInstType_0::SimdAdd         6778      0.01%     62.70% # Number of instructions issued per FU type, per thread (Count)
system.cpu.statIssuedInstType_0::SimdAddAcc            0      0.00%     62.70% # Number of instructions issued per FU type, per thread (Count)
system.cpu.statIssuedInstType_0::SimdAlu       274802      0.29%     62.99% # Number of instructions issued per FU type, per thread (Count)
system.cpu.statIssuedInstType_0::SimdCmp            6      0.00%     62.99% # Number of instructions issued per FU type, per thread (Count)
system.cpu.statIssuedInstType_0::SimdCvt        14144      0.01%     63.01% # Number of instructions issued per FU type, per thread (Count)
system.cpu.statIssuedInstType_0::SimdMisc       409051      0.43%     63.44% # Number of instructions issued per FU type, per thread (Count)
system.cpu.statIssuedInstType_0::SimdMult            0      0.00%     63.44% # Number of instructions issued per FU type, per thread (Count)
system.cpu.statIssuedInstType_0::SimdMultAcc            0      0.00%     63.44% # Number of instructions issued per FU type, per thread (Count)
system.cpu.statIssuedInstType_0::SimdShift         1017      0.00%     63.44% # Number of instructions issued per FU type, per thread (Count)
system.cpu.statIssuedInstType_0::SimdShiftAcc            0      0.00%     63.44% # Number of instructions issued per FU type, per thread (Count)
system.cpu.statIssuedInstType_0::SimdDiv            0      0.00%     63.44% # Number of instructions issued per FU type, per thread (Count)
system.cpu.statIssuedInstType_0::SimdSqrt            0      0.00%     63.44% # Number of instructions issued per FU type, per thread (Count)
system.cpu.statIssuedInstType_0::SimdFloatAdd       529162      0.56%     64.00% # Number of instructions issued per FU type, per thread (Count)
system.cpu.statIssuedInstType_0::SimdFloatAlu            0      0.00%     64.00% # Number of instructions issued per FU type, per thread (Count)
system.cpu.statIssuedInstType_0::SimdFloatCmp            0      0.00%     64.00% # Number of instructions issued per FU type, per thread (Count)
system.cpu.statIssuedInstType_0::SimdFloatCvt       395904      0.42%     64.42% # Number of instructions issued per FU type, per thread (Count)
system.cpu.statIssuedInstType_0::SimdFloatDiv       131270      0.14%     64.56% # Number of instructions issued per FU type, per thread (Count)
system.cpu.statIssuedInstType_0::SimdFloatMisc            0      0.00%     64.56% # Number of instructions issued per FU type, per thread (Count)
system.cpu.statIssuedInstType_0::SimdFloatMult       395619      0.42%     64.98% # Number of instructions issued per FU type, per thread (Count)
system.cpu.statIssuedInstType_0::SimdFloatMultAcc            0      0.00%     64.98% # Number of instructions issued per FU type, per thread (Count)
system.cpu.statIssuedInstType_0::SimdFloatSqrt            0      0.00%     64.98% # Number of instructions issued per FU type, per thread (Count)
system.cpu.statIssuedInstType_0::SimdReduceAdd            0      0.00%     64.98% # Number of instructions issued per FU type, per thread (Count)
system.cpu.statIssuedInstType_0::SimdReduceAlu            0      0.00%     64.98% # Number of instructions issued per FU type, per thread (Count)
system.cpu.statIssuedInstType_0::SimdReduceCmp            0      0.00%     64.98% # Number of instructions issued per FU type, per thread (Count)
system.cpu.statIssuedInstType_0::SimdFloatReduceAdd            0      0.00%     64.98% # Number of instructions issued per FU type, per thread (Count)
system.cpu.statIssuedInstType_0::SimdFloatReduceCmp            0      0.00%     64.98% # Number of instructions issued per FU type, per thread (Count)
system.cpu.statIssuedInstType_0::SimdAes            0      0.00%     64.98% # Number of instructions issued per FU type, per thread (Count)
system.cpu.statIssuedInstType_0::SimdAesMix            0      0.00%     64.98% # Number of instructions issued per FU type, per thread (Count)
system.cpu.statIssuedInstType_0::SimdSha1Hash            0      0.00%     64.98% # Number of instructions issued per FU type, per thread (Count)
system.cpu.statIssuedInstType_0::SimdSha1Hash2            0      0.00%     64.98% # Number of instructions issued per FU type, per thread (Count)
system.cpu.statIssuedInstType_0::SimdSha256Hash            0      0.00%     64.98% # Number of instructions issued per FU type, per thread (Count)
system.cpu.statIssuedInstType_0::SimdSha256Hash2            0      0.00%     64.98% # Number of instructions issued per FU type, per thread (Count)
system.cpu.statIssuedInstType_0::SimdShaSigma2            0      0.00%     64.98% # Number of instructions issued per FU type, per thread (Count)
system.cpu.statIssuedInstType_0::SimdShaSigma3            0      0.00%     64.98% # Number of instructions issued per FU type, per thread (Count)
system.cpu.statIssuedInstType_0::SimdPredAlu            0      0.00%     64.98% # Number of instructions issued per FU type, per thread (Count)
system.cpu.statIssuedInstType_0::MemRead     19552608     20.69%     85.66% # Number of instructions issued per FU type, per thread (Count)
system.cpu.statIssuedInstType_0::MemWrite      9811262     10.38%     96.04% # Number of instructions issued per FU type, per thread (Count)
system.cpu.statIssuedInstType_0::FloatMemRead      2410432      2.55%     98.59% # Number of instructions issued per FU type, per thread (Count)
system.cpu.statIssuedInstType_0::FloatMemWrite      1328948      1.41%    100.00% # Number of instructions issued per FU type, per thread (Count)
system.cpu.statIssuedInstType_0::IprAccess            0      0.00%    100.00% # Number of instructions issued per FU type, per thread (Count)
system.cpu.statIssuedInstType_0::InstPrefetch            0      0.00%    100.00% # Number of instructions issued per FU type, per thread (Count)
system.cpu.statIssuedInstType_0::total       94514992                       # Number of instructions issued per FU type, per thread (Count)
system.cpu.issueRate                         1.232986                       # Inst issue rate ((Count/Cycle))
system.cpu.fuBusy                              230338                       # FU busy when requested (Count)
system.cpu.fuBusyRate                        0.002437                       # FU busy rate (busy events/executed inst) ((Count/Count))
system.cpu.intInstQueueReads                243193832                       # Number of integer instruction queue reads (Count)
system.cpu.intInstQueueWrites               106434877                       # Number of integer instruction queue writes (Count)
system.cpu.intInstQueueWakeupAccesses        84409080                       # Number of integer instruction queue wakeup accesses (Count)
system.cpu.fpInstQueueReads                  18748176                       # Number of floating instruction queue reads (Count)
system.cpu.fpInstQueueWrites                  9774478                       # Number of floating instruction queue writes (Count)
system.cpu.fpInstQueueWakeupAccesses          9360795                       # Number of floating instruction queue wakeup accesses (Count)
system.cpu.vecInstQueueReads                        0                       # Number of vector instruction queue reads (Count)
system.cpu.vecInstQueueWrites                       0                       # Number of vector instruction queue writes (Count)
system.cpu.vecInstQueueWakeupAccesses               0                       # Number of vector instruction queue wakeup accesses (Count)
system.cpu.intAluAccesses                    83712297                       # Number of integer alu accesses (Count)
system.cpu.fpAluAccesses                      9374324                       # Number of floating point alu accesses (Count)
system.cpu.vecAluAccesses                           0                       # Number of vector alu accesses (Count)
system.cpu.idleCycles                               0                       # Number of cycles IEW is idle (Cycle)
system.cpu.squashCycles                        193173                       # Number of cycles IEW is squashing (Cycle)
system.cpu.blockCycles                        2729530                       # Number of cycles IEW is blocking (Cycle)
system.cpu.unblockCycles                       591440                       # Number of cycles IEW is unblocking (Cycle)
system.cpu.dispatchedInsts                   99703846                       # Number of instructions dispatched to IQ (Count)
system.cpu.dispSquashedInsts                     1014                       # Number of squashed instructions skipped by dispatch (Count)
system.cpu.dispLoadInsts                     23034664                       # Number of dispatched load instructions (Count)
system.cpu.dispStoreInsts                    11722133                       # Number of dispatched store instructions (Count)
system.cpu.dispNonSpecInsts                    930072                       # Number of dispatched non-speculative instructions (Count)
system.cpu.iqFullEvents                         35606                       # Number of times the IQ has become full, causing a stall (Count)
system.cpu.lsqFullEvents                       532202                       # Number of times the LSQ has become full, causing a stall (Count)
system.cpu.memOrderViolationEvents               4050                       # Number of memory order violations (Count)
system.cpu.predictedTakenIncorrect              73496                       # Number of branches that were predicted taken incorrectly (Count)
system.cpu.predictedNotTakenIncorrect           76548                       # Number of branches that were predicted not taken incorrectly (Count)
system.cpu.branchMispredicts                   150044                       # Number of branch mispredicts detected at execute (Count)
system.cpu.numInsts                          94076567                       # Number of executed instructions (Count)
system.cpu.numLoadInsts                      21855511                       # Number of load instructions executed (Count)
system.cpu.numSquashedInsts                    438420                       # Number of squashed instructions skipped in execute (Count)
system.cpu.numSwp                                   0                       # Number of swp insts executed (Count)
system.cpu.numNop                                   0                       # Number of nop insts executed (Count)
system.cpu.numRefs                           32855375                       # Number of memory reference insts executed (Count)
system.cpu.numBranches                        7079919                       # Number of branches executed (Count)
system.cpu.numStoreInsts                     10999864                       # Number of stores executed (Count)
system.cpu.numRate                           1.227267                       # Inst execution rate ((Count/Cycle))
system.cpu.instsToCommit                     93898485                       # Cumulative count of insts sent to commit (Count)
system.cpu.writebackCount                    93769875                       # Cumulative count of insts written-back (Count)
system.cpu.producerInst                      66621581                       # Number of instructions producing a value (Count)
system.cpu.consumerInst                     107130642                       # Number of instructions consuming a value (Count)
system.cpu.wbRate                            1.223266                       # Insts written-back per cycle ((Count/Cycle))
system.cpu.wbFanout                          0.621872                       # Average fanout of values written-back ((Count/Count))
system.cpu.timesIdled                          205203                       # Number of times that the entire CPU went into an idle state and unscheduled itself (Count)
system.cpu.idleCycles                         3975720                       # Total number of cycles that the CPU has spent unscheduled due to idling (Cycle)
system.cpu.committedInsts                    46698355                       # Number of Instructions Simulated (Count)
system.cpu.committedOps                      83201955                       # Number of Ops (including micro ops) Simulated (Count)
system.cpu.cpi                               1.641500                       # CPI: Cycles Per Instruction ((Cycle/Count))
system.cpu.totalCpi                          1.641500                       # CPI: Total CPI of All Threads ((Cycle/Count))
system.cpu.ipc                               0.609199                       # IPC: Instructions Per Cycle ((Count/Cycle))
system.cpu.totalIpc                          0.609199                       # IPC: Total IPC of All Threads ((Count/Cycle))
system.cpu.intRegfileReads                  148061889                       # Number of integer regfile reads (Count)
system.cpu.intRegfileWrites                  66033320                       # Number of integer regfile writes (Count)
system.cpu.fpRegfileReads                     9238244                       # Number of floating regfile reads (Count)
system.cpu.fpRegfileWrites                    7499607                       # Number of floating regfile writes (Count)
system.cpu.ccRegfileReads                    19654865                       # number of cc regfile reads (Count)
system.cpu.ccRegfileWrites                   19985596                       # number of cc regfile writes (Count)
system.cpu.miscRegfileReads                  48211293                       # number of misc regfile reads (Count)
system.cpu.miscRegfileWrites                  1835143                       # number of misc regfile writes (Count)
system.cpu.MemDepUnit__0.insertedLoads       23034664                       # Number of loads inserted to the mem dependence unit. (Count)
system.cpu.MemDepUnit__0.insertedStores      11722133                       # Number of stores inserted to the mem dependence unit. (Count)
system.cpu.MemDepUnit__0.conflictingLoads      9840960                       # Number of conflicting loads. (Count)
system.cpu.MemDepUnit__0.conflictingStores      2258362                       # Number of conflicting stores. (Count)
system.cpu.MemDepUnit__1.insertedLoads              0                       # Number of loads inserted to the mem dependence unit. (Count)
system.cpu.MemDepUnit__1.insertedStores             0                       # Number of stores inserted to the mem dependence unit. (Count)
system.cpu.MemDepUnit__1.conflictingLoads            0                       # Number of conflicting loads. (Count)
system.cpu.MemDepUnit__1.conflictingStores            0                       # Number of conflicting stores. (Count)
system.cpu.MemDepUnit__2.insertedLoads              0                       # Number of loads inserted to the mem dependence unit. (Count)
system.cpu.MemDepUnit__2.insertedStores             0                       # Number of stores inserted to the mem dependence unit. (Count)
system.cpu.MemDepUnit__2.conflictingLoads            0                       # Number of conflicting loads. (Count)
system.cpu.MemDepUnit__2.conflictingStores            0                       # Number of conflicting stores. (Count)
system.cpu.MemDepUnit__3.insertedLoads              0                       # Number of loads inserted to the mem dependence unit. (Count)
system.cpu.MemDepUnit__3.insertedStores             0                       # Number of stores inserted to the mem dependence unit. (Count)
system.cpu.MemDepUnit__3.conflictingLoads            0                       # Number of conflicting loads. (Count)
system.cpu.MemDepUnit__3.conflictingStores            0                       # Number of conflicting stores. (Count)
system.cpu.branchPred.lookups                 7870269                       # Number of BP lookups (Count)
system.cpu.branchPred.condPredicted           2925063                       # Number of conditional branches predicted (Count)
system.cpu.branchPred.condIncorrect            147697                       # Number of conditional branches incorrect (Count)
[...]
system.mem_ctrl.rdPerTurnAround::14               113     17.47%     25.50% # Reads before turning the bus around for writes (Count)
system.mem_ctrl.rdPerTurnAround::15               260     40.19%     65.69% # Reads before turning the bus around for writes (Count)
system.mem_ctrl.rdPerTurnAround::16               197     30.45%     96.14% # Reads before turning the bus around for writes (Count)
system.mem_ctrl.rdPerTurnAround::17                19      2.94%     99.07% # Reads before turning the bus around for writes (Count)
system.mem_ctrl.rdPerTurnAround::18                 4      0.62%     99.69% # Reads before turning the bus around for writes (Count)
system.mem_ctrl.rdPerTurnAround::20                 1      0.15%     99.85% # Reads before turning the bus around for writes (Count)
system.mem_ctrl.rdPerTurnAround::21                 1      0.15%    100.00% # Reads before turning the bus around for writes (Count)
system.mem_ctrl.rdPerTurnAround::total            647                       # Reads before turning the bus around for writes (Count)
system.mem_ctrl.wrPerTurnAround::samples          647                       # Writes before turning the bus around for reads (Count)
system.mem_ctrl.wrPerTurnAround::mean       16.136012                       # Writes before turning the bus around for reads (Count)
system.mem_ctrl.wrPerTurnAround::gmean      16.128143                       # Writes before turning the bus around for reads (Count)
system.mem_ctrl.wrPerTurnAround::stdev       0.524966                       # Writes before turning the bus around for reads (Count)
system.mem_ctrl.wrPerTurnAround::16               603     93.20%     93.20% # Writes before turning the bus around for reads (Count)
system.mem_ctrl.wrPerTurnAround::17                 6      0.93%     94.13% # Writes before turning the bus around for reads (Count)
system.mem_ctrl.wrPerTurnAround::18                33      5.10%     99.23% # Writes before turning the bus around for reads (Count)
system.mem_ctrl.wrPerTurnAround::19                 4      0.62%     99.85% # Writes before turning the bus around for reads (Count)
system.mem_ctrl.wrPerTurnAround::20                 1      0.15%    100.00% # Writes before turning the bus around for reads (Count)
system.mem_ctrl.wrPerTurnAround::total            647                       # Writes before turning the bus around for reads (Count)
system.mem_ctrl.bytesReadWrQ                    78080                       # Total number of bytes read from write queue (Byte)
system.mem_ctrl.bytesReadSys                   696384                       # Total read bytes from the system interface side (Byte)
system.mem_ctrl.bytesWrittenSys                696384                       # Total written bytes from the system interface side (Byte)
system.mem_ctrl.avgRdBWSys               862761519.75390172                       # Average system read bandwidth in Byte/s ((Byte/Second))
system.mem_ctrl.avgWrBWSys               862761519.75390172                       # Average system write bandwidth in Byte/s ((Byte/Second))
system.mem_ctrl.totGap                      807154000                       # Total gap between requests (Tick)
system.mem_ctrl.avgGap                       37090.07                       # Average gap between requests ((Tick/Count))
system.mem_ctrl.requestorReadBytes::caches.controllers1       618304                       # Per-requestor bytes read from memory (Byte)
system.mem_ctrl.requestorWriteBytes::caches.controllers1       668160                       # Per-requestor bytes write to memory (Byte)
system.mem_ctrl.requestorReadRate::caches.controllers1 766026931.563500046730                       # Per-requestor bytes read from memory rate ((Byte/Second))
system.mem_ctrl.requestorWriteRate::caches.controllers1 827794344.842453241348                       # Per-requestor bytes write to memory rate ((Byte/Second))
system.mem_ctrl.requestorReadAccesses::caches.controllers1        10881                       # Per-requestor read serviced memory accesses (Count)
system.mem_ctrl.requestorWriteAccesses::caches.controllers1        10881                       # Per-requestor write serviced memory accesses (Count)
system.mem_ctrl.requestorReadTotalLat::caches.controllers1    313880250                       # Per-requestor read total memory access latency (Tick)
system.mem_ctrl.requestorWriteTotalLat::caches.controllers1  19922868000                       # Per-requestor write total memory access latency (Tick)
system.mem_ctrl.requestorReadAvgLat::caches.controllers1     28846.64                       # Per-requestor read average memory access latency ((Tick/Count))
system.mem_ctrl.requestorWriteAvgLat::caches.controllers1   1830977.67                       # Per-requestor write average memory access latency ((Tick/Count))
system.mem_ctrl.dram.bytesRead::caches.controllers1       696384                       # Number of bytes read from this memory (Byte)
system.mem_ctrl.dram.bytesRead::total          696384                       # Number of bytes read from this memory (Byte)
system.mem_ctrl.dram.bytesWritten::caches.controllers1       696384                       # Number of bytes written to this memory (Byte)
system.mem_ctrl.dram.bytesWritten::total       696384                       # Number of bytes written to this memory (Byte)
system.mem_ctrl.dram.numReads::caches.controllers1        10881                       # Number of read requests responded to by this memory (Count)
system.mem_ctrl.dram.numReads::total            10881                       # Number of read requests responded to by this memory (Count)
system.mem_ctrl.dram.numWrites::caches.controllers1        10881                       # Number of write requests responded to by this memory (Count)
system.mem_ctrl.dram.numWrites::total           10881                       # Number of write requests responded to by this memory (Count)
system.mem_ctrl.dram.bwRead::caches.controllers1    862761520                       # Total read bandwidth from this memory ((Byte/Second))
system.mem_ctrl.dram.bwRead::total          862761520                       # Total read bandwidth from this memory ((Byte/Second))
system.mem_ctrl.dram.bwWrite::caches.controllers1    862761520                       # Write bandwidth from this memory ((Byte/Second))
system.mem_ctrl.dram.bwWrite::total         862761520                       # Write bandwidth from this memory ((Byte/Second))
system.mem_ctrl.dram.bwTotal::caches.controllers1   1725523040                       # Total bandwidth to/from this memory ((Byte/Second))
system.mem_ctrl.dram.bwTotal::total        1725523040                       # Total bandwidth to/from this memory ((Byte/Second))
system.mem_ctrl.dram.readBursts                  9661                       # Number of DRAM read bursts (Count)
system.mem_ctrl.dram.writeBursts                10440                       # Number of DRAM write bursts (Count)
system.mem_ctrl.dram.perBankRdBursts::0           518                       # Per bank write bursts (Count)
system.mem_ctrl.dram.perBankRdBursts::1           564                       # Per bank write bursts (Count)
system.mem_ctrl.dram.perBankRdBursts::2           664                       # Per bank write bursts (Count)
system.mem_ctrl.dram.perBankRdBursts::3           660                       # Per bank write bursts (Count)
system.mem_ctrl.dram.perBankRdBursts::4           610                       # Per bank write bursts (Count)
system.mem_ctrl.dram.perBankRdBursts::5           566                       # Per bank write bursts (Count)
system.mem_ctrl.dram.perBankRdBursts::6           556                       # Per bank write bursts (Count)
system.mem_ctrl.dram.perBankRdBursts::7           645                       # Per bank write bursts (Count)
system.mem_ctrl.dram.perBankRdBursts::8           519                       # Per bank write bursts (Count)
system.mem_ctrl.dram.perBankRdBursts::9           586                       # Per bank write bursts (Count)
system.mem_ctrl.dram.perBankRdBursts::10          594                       # Per bank write bursts (Count)
system.mem_ctrl.dram.perBankRdBursts::11          543                       # Per bank write bursts (Count)
system.mem_ctrl.dram.perBankRdBursts::12          663                       # Per bank write bursts (Count)
system.mem_ctrl.dram.perBankRdBursts::13          735                       # Per bank write bursts (Count)
system.mem_ctrl.dram.perBankRdBursts::14          684                       # Per bank write bursts (Count)
system.mem_ctrl.dram.perBankRdBursts::15          554                       # Per bank write bursts (Count)
system.mem_ctrl.dram.perBankWrBursts::0           519                       # Per bank write bursts (Count)
system.mem_ctrl.dram.perBankWrBursts::1           563                       # Per bank write bursts (Count)
system.mem_ctrl.dram.perBankWrBursts::2           689                       # Per bank write bursts (Count)
system.mem_ctrl.dram.perBankWrBursts::3          1026                       # Per bank write bursts (Count)
system.mem_ctrl.dram.perBankWrBursts::4           637                       # Per bank write bursts (Count)
system.mem_ctrl.dram.perBankWrBursts::5           570                       # Per bank write bursts (Count)
system.mem_ctrl.dram.perBankWrBursts::6           559                       # Per bank write bursts (Count)
system.mem_ctrl.dram.perBankWrBursts::7           656                       # Per bank write bursts (Count)
system.mem_ctrl.dram.perBankWrBursts::8           519                       # Per bank write bursts (Count)
system.mem_ctrl.dram.perBankWrBursts::9           604                       # Per bank write bursts (Count)
system.mem_ctrl.dram.perBankWrBursts::10          603                       # Per bank write bursts (Count)
system.mem_ctrl.dram.perBankWrBursts::11          589                       # Per bank write bursts (Count)
system.mem_ctrl.dram.perBankWrBursts::12          868                       # Per bank write bursts (Count)
system.mem_ctrl.dram.perBankWrBursts::13          771                       # Per bank write bursts (Count)
system.mem_ctrl.dram.perBankWrBursts::14          707                       # Per bank write bursts (Count)
system.mem_ctrl.dram.perBankWrBursts::15          560                       # Per bank write bursts (Count)
system.mem_ctrl.dram.totQLat                132736500                       # Total ticks spent queuing (Tick)
system.mem_ctrl.dram.totBusLat               48305000                       # Total ticks spent in databus transfers (Tick)
system.mem_ctrl.dram.totMemAccLat           313880250                       # Total ticks spent from burst creation until serviced by the DRAM (Tick)
system.mem_ctrl.dram.avgQLat                 13739.42                       # Average queueing delay per DRAM burst ((Tick/Count))
system.mem_ctrl.dram.avgBusLat                5000.00                       # Average bus latency per DRAM burst ((Tick/Count))
system.mem_ctrl.dram.avgMemAccLat            32489.42                       # Average memory access latency per DRAM burst ((Tick/Count))
system.mem_ctrl.dram.readRowHits                 8593                       # Number of row buffer hits during reads (Count)
system.mem_ctrl.dram.writeRowHits                9440                       # Number of row buffer hits during writes (Count)
system.mem_ctrl.dram.readRowHitRate             88.95                       # Row buffer hit rate for reads (Ratio)
system.mem_ctrl.dram.writeRowHitRate            90.42                       # Row buffer hit rate for writes (Ratio)
system.mem_ctrl.dram.bytesPerActivate::samples         2064                       # Bytes accessed per row activation (Byte)
system.mem_ctrl.dram.bytesPerActivate::mean   623.069767                       # Bytes accessed per row activation (Byte)
system.mem_ctrl.dram.bytesPerActivate::gmean   417.199733                       # Bytes accessed per row activation (Byte)
system.mem_ctrl.dram.bytesPerActivate::stdev   412.712469                       # Bytes accessed per row activation (Byte)
system.mem_ctrl.dram.bytesPerActivate::0-127          296     14.34%     14.34% # Bytes accessed per row activation (Byte)
system.mem_ctrl.dram.bytesPerActivate::128-255          324     15.70%     30.04% # Bytes accessed per row activation (Byte)
system.mem_ctrl.dram.bytesPerActivate::256-383          185      8.96%     39.00% # Bytes accessed per row activation (Byte)
system.mem_ctrl.dram.bytesPerActivate::384-511           98      4.75%     43.75% # Bytes accessed per row activation (Byte)
system.mem_ctrl.dram.bytesPerActivate::512-639           70      3.39%     47.14% # Bytes accessed per row activation (Byte)
system.mem_ctrl.dram.bytesPerActivate::640-767           52      2.52%     49.66% # Bytes accessed per row activation (Byte)
system.mem_ctrl.dram.bytesPerActivate::768-895           35      1.70%     51.36% # Bytes accessed per row activation (Byte)
system.mem_ctrl.dram.bytesPerActivate::896-1023           38      1.84%     53.20% # Bytes accessed per row activation (Byte)
system.mem_ctrl.dram.bytesPerActivate::1024-1151          966     46.80%    100.00% # Bytes accessed per row activation (Byte)
system.mem_ctrl.dram.bytesPerActivate::total         2064                       # Bytes accessed per row activation (Byte)
system.mem_ctrl.dram.bytesRead                 618304                       # Total number of bytes read from DRAM (Byte)
system.mem_ctrl.dram.bytesWritten              668160                       # Total number of bytes written to DRAM (Byte)
system.mem_ctrl.dram.avgRdBW               766.026932                       # Average DRAM read bandwidth in MiBytes/s ((Byte/Second))
system.mem_ctrl.dram.avgWrBW               827.794345                       # Average DRAM write bandwidth in MiBytes/s ((Byte/Second))
system.mem_ctrl.dram.peakBW                  12800.00                       # Theoretical peak bandwidth in MiByte/s ((Byte/Second))
system.mem_ctrl.dram.busUtil                    12.45                       # Data bus utilization in percentage (Ratio)
system.mem_ctrl.dram.busUtilRead                 5.98                       # Data bus utilization in percentage for reads (Ratio)
system.mem_ctrl.dram.busUtilWrite                6.47                       # Data bus utilization in percentage for writes (Ratio)
system.mem_ctrl.dram.pageHitRate                89.71                       # Row buffer hit rate, read and write combined (Ratio)
system.mem_ctrl.dram.power_state.pwrStateResidencyTicks::UNDEFINED    807157000                       # Cumulative time (in ticks) in various power states (Tick)
system.mem_ctrl.dram.rank0.actEnergy          7439880                       # Energy for activate commands per rank (pJ) (Joule)
system.mem_ctrl.dram.rank0.preEnergy          3943005                       # Energy for precharge commands per rank (pJ) (Joule)
system.mem_ctrl.dram.rank0.readEnergy        34150620                       # Energy for read commands per rank (pJ) (Joule)
system.mem_ctrl.dram.rank0.writeEnergy       27243180                       # Energy for write commands per rank (pJ) (Joule)
system.mem_ctrl.dram.rank0.refreshEnergy 63922560.000000                       # Energy for refresh commands per rank (pJ) (Joule)
system.mem_ctrl.dram.rank0.actBackEnergy    319865760                       # Energy for active background per rank (pJ) (Joule)
system.mem_ctrl.dram.rank0.preBackEnergy     40587840                       # Energy for precharge background per rank (pJ) (Joule)
system.mem_ctrl.dram.rank0.actPowerDownEnergy            0                       # Energy for active power-down per rank (pJ) (Joule)
system.mem_ctrl.dram.rank0.prePowerDownEnergy            0                       # Energy for precharge power-down per rank (pJ) (Joule)
system.mem_ctrl.dram.rank0.selfRefreshEnergy            0                       # Energy for self refresh per rank (pJ) (Joule)
system.mem_ctrl.dram.rank0.totalEnergy      497152845                       # Total energy per rank (pJ) (Joule)
system.mem_ctrl.dram.rank0.averagePower    615.930785                       # Core power per rank (mW) (Watt)
system.mem_ctrl.dram.rank0.totalIdleTime            0                       # Total Idle time Per DRAM Rank (Tick)
system.mem_ctrl.dram.rank0.pwrStateTime::IDLE    102160500                       # Time in different power states (Tick)
system.mem_ctrl.dram.rank0.pwrStateTime::REF     27040000                       # Time in different power states (Tick)
system.mem_ctrl.dram.rank0.pwrStateTime::SREF            0                       # Time in different power states (Tick)
system.mem_ctrl.dram.rank0.pwrStateTime::PRE_PDN            0                       # Time in different power states (Tick)
system.mem_ctrl.dram.rank0.pwrStateTime::ACT    677956500                       # Time in different power states (Tick)
system.mem_ctrl.dram.rank0.pwrStateTime::ACT_PDN            0                       # Time in different power states (Tick)
system.mem_ctrl.dram.rank1.actEnergy          7325640                       # Energy for activate commands per rank (pJ) (Joule)
system.mem_ctrl.dram.rank1.preEnergy          3889875                       # Energy for precharge commands per rank (pJ) (Joule)
system.mem_ctrl.dram.rank1.readEnergy        34828920                       # Energy for read commands per rank (pJ) (Joule)
system.mem_ctrl.dram.rank1.writeEnergy       27253620                       # Energy for write commands per rank (pJ) (Joule)
system.mem_ctrl.dram.rank1.refreshEnergy 63922560.000000                       # Energy for refresh commands per rank (pJ) (Joule)
system.mem_ctrl.dram.rank1.actBackEnergy    315118800                       # Energy for active background per rank (pJ) (Joule)
system.mem_ctrl.dram.rank1.preBackEnergy     44585280                       # Energy for precharge background per rank (pJ) (Joule)
system.mem_ctrl.dram.rank1.actPowerDownEnergy            0                       # Energy for active power-down per rank (pJ) (Joule)
system.mem_ctrl.dram.rank1.prePowerDownEnergy            0                       # Energy for precharge power-down per rank (pJ) (Joule)
system.mem_ctrl.dram.rank1.selfRefreshEnergy            0                       # Energy for self refresh per rank (pJ) (Joule)
system.mem_ctrl.dram.rank1.totalEnergy      496924695                       # Total energy per rank (pJ) (Joule)
system.mem_ctrl.dram.rank1.averagePower    615.648127                       # Core power per rank (mW) (Watt)
system.mem_ctrl.dram.rank1.totalIdleTime            0                       # Total Idle time Per DRAM Rank (Tick)
system.mem_ctrl.dram.rank1.pwrStateTime::IDLE    112618500                       # Time in different power states (Tick)
system.mem_ctrl.dram.rank1.pwrStateTime::REF     27040000                       # Time in different power states (Tick)
system.mem_ctrl.dram.rank1.pwrStateTime::SREF            0                       # Time in different power states (Tick)
system.mem_ctrl.dram.rank1.pwrStateTime::PRE_PDN            0                       # Time in different power states (Tick)
system.mem_ctrl.dram.rank1.pwrStateTime::ACT    667498500                       # Time in different power states (Tick)
system.mem_ctrl.dram.rank1.pwrStateTime::ACT_PDN            0                       # Time in different power states (Tick)
system.mem_ctrl.power_state.pwrStateResidencyTicks::UNDEFINED    807157000                       # Cumulative time (in ticks) in various power states (Tick)
system.workload.inst.arm                            0                       # number of arm instructions executed (Count)
system.workload.inst.quiesce                        0                       # number of quiesce instructions executed (Count)

---------- End Simulation Statistics   ----------
