
---------- Begin Simulation Statistics ----------
simSeconds                                   0.000223                       # Number of seconds simulated (Second)
simTicks                                    222670000                       # Number of ticks simulated (Tick)
finalTick                                   222670000                       # Number of ticks from beginning of simulation (restored from checkpoints and never reset) (Tick)
simFreq                                  1000000000000                       # The number of ticks per simulated second ((Tick/Second))
hostSeconds                                      0.77                       # Real time elapsed on the host (Second)
hostTickRate                                290630481                       # The number of ticks simulated per host second (ticks/s) ((Tick/Second))
hostMemory                                     750156                       # Number of bytes of host memory used (Byte)
simInsts                                       123064                       # Number of instructions simulated (Count)
simOps                                         227381                       # Number of ops (including micro ops) simulated (Count)
hostInstRate                                   160604                       # Simulator instruction rate (inst/s) ((Count/Second))
hostOpRate                                     296739                       # Simulator op (including micro ops) rate (op/s) ((Count/Second))
system.caches.delayHistogram::bucket_size            2                       # delay histogram for all message (Unspecified)
system.caches.delayHistogram::max_bucket           19                       # delay histogram for all message (Unspecified)
system.caches.delayHistogram::samples            6544                       # delay histogram for all message (Unspecified)
system.caches.delayHistogram::mean           0.070905                       # delay histogram for all message (Unspecified)
system.caches.delayHistogram::stdev          0.651255                       # delay histogram for all message (Unspecified)
system.caches.delayHistogram             |        6451     98.58%     98.58% |          23      0.35%     98.93% |          22      0.34%     99.27% |          30      0.46%     99.72% |          17      0.26%     99.98% |           0      0.00%     99.98% |           0      0.00%     99.98% |           1      0.02%    100.00% |           0      0.00%    100.00% |           0      0.00%    100.00% # delay histogram for all message (Unspecified)
system.caches.delayHistogram::total              6544                       # delay histogram for all message (Unspecified)
system.caches.m_outstandReqHistSeqr::bucket_size            2                       (Unspecified)
system.caches.m_outstandReqHistSeqr::max_bucket           19                       (Unspecified)
system.caches.m_outstandReqHistSeqr::samples        69795                       (Unspecified)
system.caches.m_outstandReqHistSeqr::mean     2.714464                       (Unspecified)
system.caches.m_outstandReqHistSeqr::gmean     1.953529                       (Unspecified)
system.caches.m_outstandReqHistSeqr::stdev     2.911172                       (Unspecified)
system.caches.m_outstandReqHistSeqr      |       29845     42.76%     42.76% |       27153     38.90%     81.66% |        6210      8.90%     90.56% |        1634      2.34%     92.90% |        1051      1.51%     94.41% |        1359      1.95%     96.36% |         984      1.41%     97.77% |         775      1.11%     98.88% |         784      1.12%    100.00% |           0      0.00%    100.00% (Unspecified)
system.caches.m_outstandReqHistSeqr::total        69795                       (Unspecified)
system.caches.m_latencyHistSeqr::bucket_size           64                       (Unspecified)
system.caches.m_latencyHistSeqr::max_bucket          639                       (Unspecified)
system.caches.m_latencyHistSeqr::samples        69886                       (Unspecified)
system.caches.m_latencyHistSeqr::mean        4.763486                       (Unspecified)
system.caches.m_latencyHistSeqr::gmean       1.243982                       (Unspecified)
system.caches.m_latencyHistSeqr::stdev      18.367273                       (Unspecified)
system.caches.m_latencyHistSeqr          |       68534     98.07%     98.07% |        1003      1.44%     99.50% |         290      0.41%     99.92% |          25      0.04%     99.95% |          20      0.03%     99.98% |          12      0.02%    100.00% |           1      0.00%    100.00% |           1      0.00%    100.00% |           0      0.00%    100.00% |           0      0.00%    100.00% (Unspecified)
system.caches.m_latencyHistSeqr::total          69886                       (Unspecified)
system.caches.m_hitLatencyHistSeqr::bucket_size           16                       (Unspecified)
system.caches.m_hitLatencyHistSeqr::max_bucket          159                       (Unspecified)
system.caches.m_hitLatencyHistSeqr::samples        66358                       (Unspecified)
system.caches.m_hitLatencyHistSeqr::mean     1.055788                       (Unspecified)
system.caches.m_hitLatencyHistSeqr::gmean     1.005065                       (Unspecified)
system.caches.m_hitLatencyHistSeqr::stdev     1.877470                       (Unspecified)
system.caches.m_hitLatencyHistSeqr       |       66292     99.90%     99.90% |           9      0.01%     99.91% |          14      0.02%     99.94% |          29      0.04%     99.98% |           5      0.01%     99.99% |           6      0.01%    100.00% |           0      0.00%    100.00% |           1      0.00%    100.00% |           1      0.00%    100.00% |           1      0.00%    100.00% (Unspecified)
system.caches.m_hitLatencyHistSeqr::total        66358                       (Unspecified)
system.caches.m_missLatencyHistSeqr::bucket_size           64                       (Unspecified)
system.caches.m_missLatencyHistSeqr::max_bucket          639                       (Unspecified)
system.caches.m_missLatencyHistSeqr::samples         3528                       (Unspecified)
system.caches.m_missLatencyHistSeqr::mean    74.501417                       (Unspecified)
system.caches.m_missLatencyHistSeqr::gmean    68.690060                       (Unspecified)
system.caches.m_missLatencyHistSeqr::stdev    38.662227                       (Unspecified)
system.caches.m_missLatencyHistSeqr      |        2190     62.07%     62.07% |         991     28.09%     90.16% |         288      8.16%     98.33% |          25      0.71%     99.04% |          20      0.57%     99.60% |          12      0.34%     99.94% |           1      0.03%     99.97% |           1      0.03%    100.00% |           0      0.00%    100.00% |           0      0.00%    100.00% (Unspecified)
system.caches.m_missLatencyHistSeqr::total         3528                       (Unspecified)
system.caches.delayVCHist.vnet_1::bucket_size            1                       # delay histogram for vnet_1 (Unspecified)
system.caches.delayVCHist.vnet_1::max_bucket            9                       # delay histogram for vnet_1 (Unspecified)
system.caches.delayVCHist.vnet_1::samples         3528                       # delay histogram for vnet_1 (Unspecified)
system.caches.delayVCHist.vnet_1::mean       0.007937                       # delay histogram for vnet_1 (Unspecified)
system.caches.delayVCHist.vnet_1::stdev      0.228267                       # delay histogram for vnet_1 (Unspecified)
system.caches.delayVCHist.vnet_1         |        3523     99.86%     99.86% |           0      0.00%     99.86% |           1      0.03%     99.89% |           0      0.00%     99.89% |           1      0.03%     99.91% |           0      0.00%     99.91% |           1      0.03%     99.94% |           0      0.00%     99.94% |           2      0.06%    100.00% |           0      0.00%    100.00% # delay histogram for vnet_1 (Unspecified)
system.caches.delayVCHist.vnet_1::total          3528                       # delay histogram for vnet_1 (Unspecified)
system.caches.delayVCHist.vnet_2::bucket_size            2                       # delay histogram for vnet_2 (Unspecified)
system.caches.delayVCHist.vnet_2::max_bucket           19                       # delay histogram for vnet_2 (Unspecified)
system.caches.delayVCHist.vnet_2::samples         3016                       # delay histogram for vnet_2 (Unspecified)
system.caches.delayVCHist.vnet_2::mean       0.144562                       # delay histogram for vnet_2 (Unspecified)
system.caches.delayVCHist.vnet_2::stdev      0.921634                       # delay histogram for vnet_2 (Unspecified)
system.caches.delayVCHist.vnet_2         |        2928     97.08%     97.08% |          22      0.73%     97.81% |          21      0.70%     98.51% |          29      0.96%     99.47% |          15      0.50%     99.97% |           0      0.00%     99.97% |           0      0.00%     99.97% |           1      0.03%    100.00% |           0      0.00%    100.00% |           0      0.00%    100.00% # delay histogram for vnet_2 (Unspecified)
system.caches.delayVCHist.vnet_2::total          3016                       # delay histogram for vnet_2 (Unspecified)
system.caches.L1Cache_Controller.Load           30156      0.00%      0.00% (Unspecified)
system.caches.L1Cache_Controller.Ifetch         24864      0.00%      0.00% (Unspecified)
system.caches.L1Cache_Controller.Store          14868      0.00%      0.00% (Unspecified)
system.caches.L1Cache_Controller.Data            3528      0.00%      0.00% (Unspecified)
system.caches.L1Cache_Controller.Replacement         3018      0.00%      0.00% (Unspecified)
system.caches.L1Cache_Controller.Writeback_Ack         3016      0.00%      0.00% (Unspecified)
system.caches.L1Cache_Controller.I.Load          1755      0.00%      0.00% (Unspecified)
system.caches.L1Cache_Controller.I.Ifetch         1204      0.00%      0.00% (Unspecified)
system.caches.L1Cache_Controller.I.Store          571      0.00%      0.00% (Unspecified)
system.caches.L1Cache_Controller.M.Load         28401      0.00%      0.00% (Unspecified)
system.caches.L1Cache_Controller.M.Ifetch        23660      0.00%      0.00% (Unspecified)
system.caches.L1Cache_Controller.M.Store        14297      0.00%      0.00% (Unspecified)
system.caches.L1Cache_Controller.M.Replacement         3018      0.00%      0.00% (Unspecified)
system.caches.L1Cache_Controller.MI.Writeback_Ack         3016      0.00%      0.00% (Unspecified)
system.caches.L1Cache_Controller.IS.Data         2957      0.00%      0.00% (Unspecified)
system.caches.L1Cache_Controller.IM.Data          571      0.00%      0.00% (Unspecified)
system.caches.Directory_Controller.GETX          3528      0.00%      0.00% (Unspecified)
system.caches.Directory_Controller.PUTX          3017      0.00%      0.00% (Unspecified)
system.caches.Directory_Controller.Memory_Data         3528      0.00%      0.00% (Unspecified)
system.caches.Directory_Controller.Memory_Ack         3016      0.00%      0.00% (Unspecified)
system.caches.Directory_Controller.I.GETX         3528      0.00%      0.00% (Unspecified)
system.caches.Directory_Controller.M.PUTX         3017      0.00%      0.00% (Unspecified)
system.caches.Directory_Controller.IM.Memory_Data         3528      0.00%      0.00% (Unspecified)
system.caches.Directory_Controller.MI.Memory_Ack         3016      0.00%      0.00% (Unspecified)
system.caches.MachineType.Directory.miss_mach_latency_hist_seqr::bucket_size           64                       (Unspecified)
system.caches.MachineType.Directory.miss_mach_latency_hist_seqr::max_bucket          639                       (Unspecified)
system.caches.MachineType.Directory.miss_mach_latency_hist_seqr::samples         3528                       (Unspecified)
system.caches.MachineType.Directory.miss_mach_latency_hist_seqr::mean    74.501417                       (Unspecified)
system.caches.MachineType.Directory.miss_mach_latency_hist_seqr::gmean    68.690060                       (Unspecified)
system.caches.MachineType.Directory.miss_mach_latency_hist_seqr::stdev    38.662227                       (Unspecified)
system.caches.MachineType.Directory.miss_mach_latency_hist_seqr |        2190     62.07%     62.07% |         991     28.09%     90.16% |         288      8.16%     98.33% |          25      0.71%     99.04% |          20      0.57%     99.60% |          12      0.34%     99.94% |           1      0.03%     99.97% |           1      0.03%    100.00% |           0      0.00%    100.00% |           0      0.00%    100.00% (Unspecified)
system.caches.MachineType.Directory.miss_mach_latency_hist_seqr::total         3528                       (Unspecified)
system.caches.MachineType.Directory.miss_latency_hist_seqr.issue_to_initial_request::bucket_size            1                       (Unspecified)
system.caches.MachineType.Directory.miss_latency_hist_seqr.issue_to_initial_request::max_bucket            9                       (Unspecified)
system.caches.MachineType.Directory.miss_latency_hist_seqr.issue_to_initial_request::samples            1                       (Unspecified)
system.caches.MachineType.Directory.miss_latency_hist_seqr.issue_to_initial_request::stdev          nan                       (Unspecified)
system.caches.MachineType.Directory.miss_latency_hist_seqr.issue_to_initial_request |           1    100.00%    100.00% |           0      0.00%    100.00% |           0      0.00%    100.00% |           0      0.00%    100.00% |           0      0.00%    100.00% |           0      0.00%    100.00% |           0      0.00%    100.00% |           0      0.00%    100.00% |           0      0.00%    100.00% |           0      0.00%    100.00% (Unspecified)
system.caches.MachineType.Directory.miss_latency_hist_seqr.issue_to_initial_request::total            1                       (Unspecified)
system.caches.MachineType.Directory.miss_latency_hist_seqr.initial_to_forward::bucket_size            1                       (Unspecified)
system.caches.MachineType.Directory.miss_latency_hist_seqr.initial_to_forward::max_bucket            9                       (Unspecified)
system.caches.MachineType.Directory.miss_latency_hist_seqr.initial_to_forward::samples            1                       (Unspecified)
system.caches.MachineType.Directory.miss_latency_hist_seqr.initial_to_forward::stdev          nan                       (Unspecified)
system.caches.MachineType.Directory.miss_latency_hist_seqr.initial_to_forward |           1    100.00%    100.00% |           0      0.00%    100.00% |           0      0.00%    100.00% |           0      0.00%    100.00% |           0      0.00%    100.00% |           0      0.00%    100.00% |           0      0.00%    100.00% |           0      0.00%    100.00% |           0      0.00%    100.00% |           0      0.00%    100.00% (Unspecified)
system.caches.MachineType.Directory.miss_latency_hist_seqr.initial_to_forward::total            1                       (Unspecified)
system.caches.MachineType.Directory.miss_latency_hist_seqr.forward_to_first_response::bucket_size            1                       (Unspecified)
system.caches.MachineType.Directory.miss_latency_hist_seqr.forward_to_first_response::max_bucket            9                       (Unspecified)
system.caches.MachineType.Directory.miss_latency_hist_seqr.forward_to_first_response::samples            1                       (Unspecified)
system.caches.MachineType.Directory.miss_latency_hist_seqr.forward_to_first_response::stdev          nan                       (Unspecified)
system.caches.MachineType.Directory.miss_latency_hist_seqr.forward_to_first_response |           1    100.00%    100.00% |           0      0.00%    100.00% |           0      0.00%    100.00% |           0      0.00%    100.00% |           0      0.00%    100.00% |           0      0.00%    100.00% |           0      0.00%    100.00% |           0      0.00%    100.00% |           0      0.00%    100.00% |           0      0.00%    100.00% (Unspecified)
system.caches.MachineType.Directory.miss_latency_hist_seqr.forward_to_first_response::total            1                       (Unspecified)
system.caches.MachineType.Directory.miss_latency_hist_seqr.first_response_to_completion::bucket_size            8                       (Unspecified)
system.caches.MachineType.Directory.miss_latency_hist_seqr.first_response_to_completion::max_bucket           79                       (Unspecified)
system.caches.MachineType.Directory.miss_latency_hist_seqr.first_response_to_completion::samples            1                       (Unspecified)
system.caches.MachineType.Directory.miss_latency_hist_seqr.first_response_to_completion::mean           73                       (Unspecified)
system.caches.MachineType.Directory.miss_latency_hist_seqr.first_response_to_completion::gmean    73.000000                       (Unspecified)
system.caches.MachineType.Directory.miss_latency_hist_seqr.first_response_to_completion::stdev          nan                       (Unspecified)
system.caches.MachineType.Directory.miss_latency_hist_seqr.first_response_to_completion |           0      0.00%      0.00% |           0      0.00%      0.00% |           0      0.00%      0.00% |           0      0.00%      0.00% |           0      0.00%      0.00% |           0      0.00%      0.00% |           0      0.00%      0.00% |           0      0.00%      0.00% |           0      0.00%      0.00% |           1    100.00%    100.00% (Unspecified)
system.caches.MachineType.Directory.miss_latency_hist_seqr.first_response_to_completion::total            1                       (Unspecified)
system.caches.MachineType.Directory.incomplete_times_seqr         3527                       (Unspecified)
system.caches.RequestType.LD.latency_hist_seqr::bucket_size           64                       (Unspecified)
system.caches.RequestType.LD.latency_hist_seqr::max_bucket          639                       (Unspecified)
system.caches.RequestType.LD.latency_hist_seqr::samples        30155                       (Unspecified)
system.caches.RequestType.LD.latency_hist_seqr::mean     5.514309                       (Unspecified)
system.caches.RequestType.LD.latency_hist_seqr::gmean     1.286481                       (Unspecified)
system.caches.RequestType.LD.latency_hist_seqr::stdev    20.468746                       (Unspecified)
system.caches.RequestType.LD.latency_hist_seqr |       29343     97.31%     97.31% |         611      2.03%     99.33% |         167      0.55%     99.89% |          17      0.06%     99.94% |          11      0.04%     99.98% |           4      0.01%     99.99% |           1      0.00%    100.00% |           1      0.00%    100.00% |           0      0.00%    100.00% |           0      0.00%    100.00% (Unspecified)
system.caches.RequestType.LD.latency_hist_seqr::total        30155                       (Unspecified)
system.caches.RequestType.LD.hit_latency_hist_seqr::bucket_size           16                       (Unspecified)
system.caches.RequestType.LD.hit_latency_hist_seqr::max_bucket          159                       (Unspecified)
system.caches.RequestType.LD.hit_latency_hist_seqr::samples        28401                       (Unspecified)
system.caches.RequestType.LD.hit_latency_hist_seqr::mean     1.047498                       (Unspecified)
system.caches.RequestType.LD.hit_latency_hist_seqr::gmean     1.003699                       (Unspecified)
system.caches.RequestType.LD.hit_latency_hist_seqr::stdev     1.707140                       (Unspecified)
system.caches.RequestType.LD.hit_latency_hist_seqr |       28377     99.92%     99.92% |           4      0.01%     99.93% |           4      0.01%     99.94% |           8      0.03%     99.97% |           4      0.01%     99.99% |           4      0.01%    100.00% |           0      0.00%    100.00% |           0      0.00%    100.00% |           0      0.00%    100.00% |           0      0.00%    100.00% (Unspecified)
system.caches.RequestType.LD.hit_latency_hist_seqr::total        28401                       (Unspecified)
system.caches.RequestType.LD.miss_latency_hist_seqr::bucket_size           64                       (Unspecified)
system.caches.RequestType.LD.miss_latency_hist_seqr::max_bucket          639                       (Unspecified)
system.caches.RequestType.LD.miss_latency_hist_seqr::samples         1754                       (Unspecified)
system.caches.RequestType.LD.miss_latency_hist_seqr::mean    77.841505                       (Unspecified)
system.caches.RequestType.LD.miss_latency_hist_seqr::gmean    71.599126                       (Unspecified)
system.caches.RequestType.LD.miss_latency_hist_seqr::stdev    40.027144                       (Unspecified)
system.caches.RequestType.LD.miss_latency_hist_seqr |         950     54.16%     54.16% |         603     34.38%     88.54% |         167      9.52%     98.06% |          17      0.97%     99.03% |          11      0.63%     99.66% |           4      0.23%     99.89% |           1      0.06%     99.94% |           1      0.06%    100.00% |           0      0.00%    100.00% |           0      0.00%    100.00% (Unspecified)
system.caches.RequestType.LD.miss_latency_hist_seqr::total         1754                       (Unspecified)
system.caches.RequestType.ST.latency_hist_seqr::bucket_size           64                       (Unspecified)
system.caches.RequestType.ST.latency_hist_seqr::max_bucket          639                       (Unspecified)
system.caches.RequestType.ST.latency_hist_seqr::samples        14445                       (Unspecified)
system.caches.RequestType.ST.latency_hist_seqr::mean     3.848183                       (Unspecified)
system.caches.RequestType.ST.latency_hist_seqr::gmean     1.182931                       (Unspecified)
system.caches.RequestType.ST.latency_hist_seqr::stdev    16.381486                       (Unspecified)
system.caches.RequestType.ST.latency_hist_seqr |       14284     98.89%     98.89% |          98      0.68%     99.56% |          53      0.37%     99.93% |           3      0.02%     99.95% |           2      0.01%     99.97% |           5      0.03%    100.00% |           0      0.00%    100.00% |           0      0.00%    100.00% |           0      0.00%    100.00% |           0      0.00%    100.00% (Unspecified)
system.caches.RequestType.ST.latency_hist_seqr::total        14445                       (Unspecified)
system.caches.RequestType.ST.hit_latency_hist_seqr::bucket_size           16                       (Unspecified)
system.caches.RequestType.ST.hit_latency_hist_seqr::max_bucket          159                       (Unspecified)
system.caches.RequestType.ST.hit_latency_hist_seqr::samples        13891                       (Unspecified)
system.caches.RequestType.ST.hit_latency_hist_seqr::mean     1.036498                       (Unspecified)
system.caches.RequestType.ST.hit_latency_hist_seqr::gmean     1.006361                       (Unspecified)
system.caches.RequestType.ST.hit_latency_hist_seqr::stdev     1.619591                       (Unspecified)
system.caches.RequestType.ST.hit_latency_hist_seqr |       13884     99.95%     99.95% |           2      0.01%     99.96% |           0      0.00%     99.96% |           4      0.03%     99.99% |           0      0.00%     99.99% |           0      0.00%     99.99% |           0      0.00%     99.99% |           0      0.00%     99.99% |           0      0.00%     99.99% |           1      0.01%    100.00% (Unspecified)
system.caches.RequestType.ST.hit_latency_hist_seqr::total        13891                       (Unspecified)
system.caches.RequestType.ST.miss_latency_hist_seqr::bucket_size           64                       (Unspecified)
system.caches.RequestType.ST.miss_latency_hist_seqr::max_bucket          639                       (Unspecified)
system.caches.RequestType.ST.miss_latency_hist_seqr::samples          554                       (Unspecified)
system.caches.RequestType.ST.miss_latency_hist_seqr::mean    74.348375                       (Unspecified)
system.caches.RequestType.ST.miss_latency_hist_seqr::gmean    68.122791                       (Unspecified)
system.caches.RequestType.ST.miss_latency_hist_seqr::stdev    42.017558                       (Unspecified)
system.caches.RequestType.ST.miss_latency_hist_seqr |         394     71.12%     71.12% |          98     17.69%     88.81% |          52      9.39%     98.19% |           3      0.54%     98.74% |           2      0.36%     99.10% |           5      0.90%    100.00% |           0      0.00%    100.00% |           0      0.00%    100.00% |           0      0.00%    100.00% |           0      0.00%    100.00% (Unspecified)
system.caches.RequestType.ST.miss_latency_hist_seqr::total          554                       (Unspecified)
system.caches.RequestType.IFETCH.latency_hist_seqr::bucket_size           64                       (Unspecified)
system.caches.RequestType.IFETCH.latency_hist_seqr::max_bucket          639                       (Unspecified)
system.caches.RequestType.IFETCH.latency_hist_seqr::samples        24863                       (Unspecified)
system.caches.RequestType.IFETCH.latency_hist_seqr::mean     4.382134                       (Unspecified)
system.caches.RequestType.IFETCH.latency_hist_seqr::gmean     1.229985                       (Unspecified)
system.caches.RequestType.IFETCH.latency_hist_seqr::stdev    16.635079                       (Unspecified)
system.caches.RequestType.IFETCH.latency_hist_seqr |       24496     98.52%     98.52% |         286      1.15%     99.67% |          66      0.27%     99.94% |           5      0.02%     99.96% |           7      0.03%     99.99% |           3      0.01%    100.00% |           0      0.00%    100.00% |           0      0.00%    100.00% |           0      0.00%    100.00% |           0      0.00%    100.00% (Unspecified)
system.caches.RequestType.IFETCH.latency_hist_seqr::total        24863                       (Unspecified)
system.caches.RequestType.IFETCH.hit_latency_hist_seqr::bucket_size           16                       (Unspecified)
system.caches.RequestType.IFETCH.hit_latency_hist_seqr::max_bucket          159                       (Unspecified)
system.caches.RequestType.IFETCH.hit_latency_hist_seqr::samples        23660                       (Unspecified)
system.caches.RequestType.IFETCH.hit_latency_hist_seqr::mean     1.071175                       (Unspecified)
system.caches.RequestType.IFETCH.hit_latency_hist_seqr::gmean     1.005506                       (Unspecified)
system.caches.RequestType.IFETCH.hit_latency_hist_seqr::stdev     2.099335                       (Unspecified)
system.caches.RequestType.IFETCH.hit_latency_hist_seqr |       23628     99.86%     99.86% |           3      0.01%     99.88% |           8      0.03%     99.91% |          17      0.07%     99.98% |           1      0.00%     99.99% |           1      0.00%     99.99% |           0      0.00%     99.99% |           1      0.00%    100.00% |           1      0.00%    100.00% |           0      0.00%    100.00% (Unspecified)
system.caches.RequestType.IFETCH.hit_latency_hist_seqr::total        23660                       (Unspecified)
system.caches.RequestType.IFETCH.miss_latency_hist_seqr::bucket_size           64                       (Unspecified)
system.caches.RequestType.IFETCH.miss_latency_hist_seqr::max_bucket          639                       (Unspecified)
system.caches.RequestType.IFETCH.miss_latency_hist_seqr::samples         1203                       (Unspecified)
system.caches.RequestType.IFETCH.miss_latency_hist_seqr::mean    69.500416                       (Unspecified)
system.caches.RequestType.IFETCH.miss_latency_hist_seqr::gmean    64.729526                       (Unspecified)
system.caches.RequestType.IFETCH.miss_latency_hist_seqr::stdev    34.311953                       (Unspecified)
system.caches.RequestType.IFETCH.miss_latency_hist_seqr |         840     69.83%     69.83% |         283     23.52%     93.35% |          65      5.40%     98.75% |           5      0.42%     99.17% |           7      0.58%     99.75% |           3      0.25%    100.00% |           0      0.00%    100.00% |           0      0.00%    100.00% |           0      0.00%    100.00% |           0      0.00%    100.00% (Unspecified)
system.caches.RequestType.IFETCH.miss_latency_hist_seqr::total         1203                       (Unspecified)
system.caches.RequestType.RMW_Read.latency_hist_seqr::bucket_size           32                       (Unspecified)
system.caches.RequestType.RMW_Read.latency_hist_seqr::max_bucket          319                       (Unspecified)
system.caches.RequestType.RMW_Read.latency_hist_seqr::samples          423                       (Unspecified)
system.caches.RequestType.RMW_Read.latency_hist_seqr::mean     4.910165                       (Unspecified)
system.caches.RequestType.RMW_Read.latency_hist_seqr::gmean     1.230121                       (Unspecified)
system.caches.RequestType.RMW_Read.latency_hist_seqr::stdev    19.089996                       (Unspecified)
system.caches.RequestType.RMW_Read.latency_hist_seqr |         403     95.27%     95.27% |           8      1.89%     97.16% |           7      1.65%     98.82% |           1      0.24%     99.05% |           3      0.71%     99.76% |           1      0.24%    100.00% |           0      0.00%    100.00% |           0      0.00%    100.00% |           0      0.00%    100.00% |           0      0.00%    100.00% (Unspecified)
system.caches.RequestType.RMW_Read.latency_hist_seqr::total          423                       (Unspecified)
system.caches.RequestType.RMW_Read.hit_latency_hist_seqr::bucket_size           16                       (Unspecified)
system.caches.RequestType.RMW_Read.hit_latency_hist_seqr::max_bucket          159                       (Unspecified)
system.caches.RequestType.RMW_Read.hit_latency_hist_seqr::samples          406                       (Unspecified)
system.caches.RequestType.RMW_Read.hit_latency_hist_seqr::mean     1.399015                       (Unspecified)
system.caches.RequestType.RMW_Read.hit_latency_hist_seqr::gmean     1.031068                       (Unspecified)
system.caches.RequestType.RMW_Read.hit_latency_hist_seqr::stdev     5.059976                       (Unspecified)
system.caches.RequestType.RMW_Read.hit_latency_hist_seqr |         403     99.26%     99.26% |           0      0.00%     99.26% |           2      0.49%     99.75% |           0      0.00%     99.75% |           0      0.00%     99.75% |           1      0.25%    100.00% |           0      0.00%    100.00% |           0      0.00%    100.00% |           0      0.00%    100.00% |           0      0.00%    100.00% (Unspecified)
system.caches.RequestType.RMW_Read.hit_latency_hist_seqr::total          406                       (Unspecified)
system.caches.RequestType.RMW_Read.miss_latency_hist_seqr::bucket_size           32                       (Unspecified)
system.caches.RequestType.RMW_Read.miss_latency_hist_seqr::max_bucket          319                       (Unspecified)
system.caches.RequestType.RMW_Read.miss_latency_hist_seqr::samples           17                       (Unspecified)
system.caches.RequestType.RMW_Read.miss_latency_hist_seqr::mean    88.764706                       (Unspecified)
system.caches.RequestType.RMW_Read.miss_latency_hist_seqr::gmean    83.326299                       (Unspecified)
system.caches.RequestType.RMW_Read.miss_latency_hist_seqr::stdev    34.348452                       (Unspecified)
system.caches.RequestType.RMW_Read.miss_latency_hist_seqr |           0      0.00%      0.00% |           6     35.29%     35.29% |           6     35.29%     70.59% |           1      5.88%     76.47% |           3     17.65%     94.12% |           1      5.88%    100.00% |           0      0.00%    100.00% |           0      0.00%    100.00% |           0      0.00%    100.00% |           0      0.00%    100.00% (Unspecified)
system.caches.RequestType.RMW_Read.miss_latency_hist_seqr::total           17                       (Unspecified)
system.caches.RequestTypeMachineType.LD.Directory.miss_type_mach_latency_hist_seqr::bucket_size           64                       (Unspecified)
system.caches.RequestTypeMachineType.LD.Directory.miss_type_mach_latency_hist_seqr::max_bucket          639                       (Unspecified)
system.caches.RequestTypeMachineType.LD.Directory.miss_type_mach_latency_hist_seqr::samples         1754                       (Unspecified)
system.caches.RequestTypeMachineType.LD.Directory.miss_type_mach_latency_hist_seqr::mean    77.841505                       (Unspecified)
system.caches.RequestTypeMachineType.LD.Directory.miss_type_mach_latency_hist_seqr::gmean    71.599126                       (Unspecified)
system.caches.RequestTypeMachineType.LD.Directory.miss_type_mach_latency_hist_seqr::stdev    40.027144                       (Unspecified)
system.caches.RequestTypeMachineType.LD.Directory.miss_type_mach_latency_hist_seqr |         950     54.16%     54.16% |         603     34.38%     88.54% |         167      9.52%     98.06% |          17      0.97%     99.03% |          11      0.63%     99.66% |           4      0.23%     99.89% |           1      0.06%     99.94% |           1      0.06%    100.00% |           0      0.00%    100.00% |           0      0.00%    100.00% (Unspecified)
system.caches.RequestTypeMachineType.LD.Directory.miss_type_mach_latency_hist_seqr::total         1754                       (Unspecified)
system.caches.RequestTypeMachineType.ST.Directory.miss_type_mach_latency_hist_seqr::bucket_size           64                       (Unspecified)
system.caches.RequestTypeMachineType.ST.Directory.miss_type_mach_latency_hist_seqr::max_bucket          639                       (Unspecified)
system.caches.RequestTypeMachineType.ST.Directory.miss_type_mach_latency_hist_seqr::samples          554                       (Unspecified)
system.caches.RequestTypeMachineType.ST.Directory.miss_type_mach_latency_hist_seqr::mean    74.348375                       (Unspecified)
system.caches.RequestTypeMachineType.ST.Directory.miss_type_mach_latency_hist_seqr::gmean    68.122791                       (Unspecified)
system.caches.RequestTypeMachineType.ST.Directory.miss_type_mach_latency_hist_seqr::stdev    42.017558                       (Unspecified)
system.caches.RequestTypeMachineType.ST.Directory.miss_type_mach_latency_hist_seqr |         394     71.12%     71.12% |          98     17.69%     88.81% |          52      9.39%     98.19% |           3      0.54%     98.74% |           2      0.36%     99.10% |           5      0.90%    100.00% |           0      0.00%    100.00% |           0      0.00%    100.00% |           0      0.00%    100.00% |           0      0.00%    100.00% (Unspecified)
system.caches.RequestTypeMachineType.ST.Directory.miss_type_mach_latency_hist_seqr::total          554                       (Unspecified)
system.caches.RequestTypeMachineType.IFETCH.Directory.miss_type_mach_latency_hist_seqr::bucket_size           64                       (Unspecified)
system.caches.RequestTypeMachineType.IFETCH.Directory.miss_type_mach_latency_hist_seqr::max_bucket          639                       (Unspecified)
system.caches.RequestTypeMachineType.IFETCH.Directory.miss_type_mach_latency_hist_seqr::samples         1203                       (Unspecified)
system.caches.RequestTypeMachineType.IFETCH.Directory.miss_type_mach_latency_hist_seqr::mean    69.500416                       (Unspecified)
system.caches.RequestTypeMachineType.IFETCH.Directory.miss_type_mach_latency_hist_seqr::gmean    64.729526                       (Unspecified)
system.caches.RequestTypeMachineType.IFETCH.Directory.miss_type_mach_latency_hist_seqr::stdev    34.311953                       (Unspecified)
system.caches.RequestTypeMachineType.IFETCH.Directory.miss_type_mach_latency_hist_seqr |         840     69.83%     69.83% |         283     23.52%     93.35% |          65      5.40%     98.75% |           5      0.42%     99.17% |           7      0.58%     99.75% |           3      0.25%    100.00% |           0      0.00%    100.00% |           0      0.00%    100.00% |           0      0.00%    100.00% |           0      0.00%    100.00% (Unspecified)
system.caches.RequestTypeMachineType.IFETCH.Directory.miss_type_mach_latency_hist_seqr::total         1203                       (Unspecified)
system.caches.RequestTypeMachineType.RMW_Read.Directory.miss_type_mach_latency_hist_seqr::bucket_size           32                       (Unspecified)
system.caches.RequestTypeMachineType.RMW_Read.Directory.miss_type_mach_latency_hist_seqr::max_bucket          319                       (Unspecified)
system.caches.RequestTypeMachineType.RMW_Read.Directory.miss_type_mach_latency_hist_seqr::samples           17                       (Unspecified)
system.caches.RequestTypeMachineType.RMW_Read.Directory.miss_type_mach_latency_hist_seqr::mean    88.764706                       (Unspecified)
system.caches.RequestTypeMachineType.RMW_Read.Directory.miss_type_mach_latency_hist_seqr::gmean    83.326299                       (Unspecified)
system.caches.RequestTypeMachineType.RMW_Read.Directory.miss_type_mach_latency_hist_seqr::stdev    34.348452                       (Unspecified)
system.caches.RequestTypeMachineType.RMW_Read.Directory.miss_type_mach_latency_hist_seqr |           0      0.00%      0.00% |           6     35.29%     35.29% |           6     35.29%     70.59% |           1      5.88%     76.47% |           3     17.65%     94.12% |           1      5.88%    100.00% |           0      0.00%    100.00% |           0      0.00%    100.00% |           0      0.00%    100.00% |           0      0.00%    100.00% (Unspecified)
system.caches.RequestTypeMachineType.RMW_Read.Directory.miss_type_mach_latency_hist_seqr::total           17                       (Unspecified)
system.caches.controllers0.delayHistogram::samples         6544                       # delay_histogram (Unspecified)
system.caches.controllers0.delayHistogram::mean     0.070905                       # delay_histogram (Unspecified)
system.caches.controllers0.delayHistogram::stdev     0.651255                       # delay_histogram (Unspecified)
system.caches.controllers0.delayHistogram::0-1         6451     98.58%     98.58% # delay_histogram (Unspecified)
system.caches.controllers0.delayHistogram::2-3           23      0.35%     98.93% # delay_histogram (Unspecified)
system.caches.controllers0.delayHistogram::4-5           22      0.34%     99.27% # delay_histogram (Unspecified)
system.caches.controllers0.delayHistogram::6-7           30      0.46%     99.72% # delay_histogram (Unspecified)
system.caches.controllers0.delayHistogram::8-9           17      0.26%     99.98% # delay_histogram (Unspecified)
system.caches.controllers0.delayHistogram::14-15            1      0.02%    100.00% # delay_histogram (Unspecified)
system.caches.controllers0.delayHistogram::total         6544                       # delay_histogram (Unspecified)
system.caches.controllers0.cacheMemory.m_demand_hits        66358                       # Number of cache demand hits (Unspecified)
system.caches.controllers0.cacheMemory.m_demand_misses         3530                       # Number of cache demand misses (Unspecified)
system.caches.controllers0.cacheMemory.m_demand_accesses        69888                       # Number of cache demand accesses (Unspecified)
system.caches.controllers0.forwardToCache.m_buf_msgs     0.013545                       # Average number of messages in buffer (Unspecified)
system.caches.controllers0.forwardToCache.m_stall_time  4829.649258                       # Average number of cycles messages are stalled in this MB (Unspecified)
system.caches.controllers0.mandatoryQueue.m_buf_msgs     0.340616                       # Average number of messages in buffer (Unspecified)
system.caches.controllers0.mandatoryQueue.m_stall_time  1090.308528                       # Average number of cycles messages are stalled in this MB (Unspecified)
system.caches.controllers0.power_state.pwrStateResidencyTicks::UNDEFINED    222670000                       # Cumulative time (in ticks) in various power states (Tick)
system.caches.controllers0.requestFromCache.m_buf_msgs     0.058813                       # Average number of messages in buffer (Unspecified)
system.caches.controllers0.requestFromCache.m_stall_time  1999.973054                       # Average number of cycles messages are stalled in this MB (Unspecified)
system.caches.controllers0.responseToCache.m_buf_msgs     0.015844                       # Average number of messages in buffer (Unspecified)
system.caches.controllers0.responseToCache.m_stall_time  5001.639197                       # Average number of cycles messages are stalled in this MB (Unspecified)
system.caches.controllers1.forwardFromDir.m_buf_msgs     0.013545                       # Average number of messages in buffer (Unspecified)
system.caches.controllers1.forwardFromDir.m_stall_time   957.533570                       # Average number of cycles messages are stalled in this MB (Unspecified)
system.caches.controllers1.power_state.pwrStateResidencyTicks::UNDEFINED    222670000                       # Cumulative time (in ticks) in various power states (Tick)
system.caches.controllers1.requestToDir.m_buf_msgs     0.029393                       # Average number of messages in buffer (Unspecified)
system.caches.controllers1.requestToDir.m_stall_time  9731.005507                       # Average number of cycles messages are stalled in this MB (Unspecified)
system.caches.controllers1.requestToMemory.m_buf_msgs     0.029420                       # Average number of messages in buffer (Unspecified)
system.caches.controllers1.requestToMemory.m_stall_time  1000.471550                       # Average number of cycles messages are stalled in this MB (Unspecified)
system.caches.controllers1.responseFromDir.m_buf_msgs     0.015844                       # Average number of messages in buffer (Unspecified)
system.caches.controllers1.responseFromDir.m_stall_time   999.690124                       # Average number of cycles messages are stalled in this MB (Unspecified)
system.caches.controllers1.responseFromMemory.m_buf_msgs     0.034944                       # Average number of messages in buffer (Unspecified)
system.caches.controllers1.responseFromMemory.m_stall_time   999.694615                       # Average number of cycles messages are stalled in this MB (Unspecified)
system.caches.network.msg_count.Control          7057                       (Unspecified)
system.caches.network.msg_byte.Control          56456                       (Unspecified)
system.caches.network.msg_count.Data             6034                       (Unspecified)
system.caches.network.msg_byte.Data            434448                       (Unspecified)
system.caches.network.msg_count.Response_Data         7056                       (Unspecified)
system.caches.network.msg_byte.Response_Data       508032                       (Unspecified)
system.caches.network.msg_count.Writeback_Control         6032                       (Unspecified)
system.caches.network.msg_byte.Writeback_Control        48256                       (Unspecified)
system.caches.network.int_link_buffers2.m_buf_msgs     0.029393                       # Average number of messages in buffer (Unspecified)
system.caches.network.int_link_buffers2.m_stall_time  7731.104308                       # Average number of cycles messages are stalled in this MB (Unspecified)
system.caches.network.int_link_buffers8.m_buf_msgs     0.013545                       # Average number of messages in buffer (Unspecified)
system.caches.network.int_link_buffers8.m_stall_time  2914.644991                       # Average number of cycles messages are stalled in this MB (Unspecified)
system.caches.network.int_link_buffers9.m_buf_msgs     0.015844                       # Average number of messages in buffer (Unspecified)
system.caches.network.int_link_buffers9.m_stall_time  3002.321822                       # Average number of cycles messages are stalled in this MB (Unspecified)
system.caches.network.power_state.pwrStateResidencyTicks::UNDEFINED    222670000                       # Cumulative time (in ticks) in various power states (Tick)
system.caches.network.routers0.percent_links_utilized     7.348318                       (Unspecified)
system.caches.network.routers0.msg_count.Control::2         3529                       (Unspecified)
system.caches.network.routers0.msg_bytes.Control::2        28232                       (Unspecified)
system.caches.network.routers0.msg_count.Data::2         3017                       (Unspecified)
system.caches.network.routers0.msg_bytes.Data::2       217224                       (Unspecified)
system.caches.network.routers0.msg_count.Response_Data::4         3528                       (Unspecified)
system.caches.network.routers0.msg_bytes.Response_Data::4       254016                       (Unspecified)
system.caches.network.routers0.msg_count.Writeback_Control::3         3016                       (Unspecified)
system.caches.network.routers0.msg_bytes.Writeback_Control::3        24128                       (Unspecified)
system.caches.network.routers0.port_buffers3.m_buf_msgs     0.013545                       # Average number of messages in buffer (Unspecified)
system.caches.network.routers0.port_buffers3.m_stall_time  3872.151615                       # Average number of cycles messages are stalled in this MB (Unspecified)
system.caches.network.routers0.port_buffers4.m_buf_msgs     0.015844                       # Average number of messages in buffer (Unspecified)
system.caches.network.routers0.port_buffers4.m_stall_time  4001.985000                       # Average number of cycles messages are stalled in this MB (Unspecified)
system.caches.network.routers0.port_buffers7.m_buf_msgs     0.095280                       # Average number of messages in buffer (Unspecified)
system.caches.network.routers0.port_buffers7.m_stall_time  6731.140254                       # Average number of cycles messages are stalled in this MB (Unspecified)
system.caches.network.routers0.power_state.pwrStateResidencyTicks::UNDEFINED    222670000                       # Cumulative time (in ticks) in various power states (Tick)
system.caches.network.routers0.throttle00.link_utilization     7.807069                       (Unspecified)
system.caches.network.routers0.throttle00.msg_count.Response_Data::4         3528                       (Unspecified)
system.caches.network.routers0.throttle00.msg_bytes.Response_Data::4       254016                       (Unspecified)
system.caches.network.routers0.throttle00.msg_count.Writeback_Control::3         3016                       (Unspecified)
system.caches.network.routers0.throttle00.msg_bytes.Writeback_Control::3        24128                       (Unspecified)
system.caches.network.routers0.throttle01.link_utilization     6.889568                       (Unspecified)
system.caches.network.routers0.throttle01.msg_count.Control::2         3529                       (Unspecified)
system.caches.network.routers0.throttle01.msg_bytes.Control::2        28232                       (Unspecified)
system.caches.network.routers0.throttle01.msg_count.Data::2         3017                       (Unspecified)
system.caches.network.routers0.throttle01.msg_bytes.Data::2       217224                       (Unspecified)
system.caches.network.routers1.percent_links_utilized     7.347869                       (Unspecified)
system.caches.network.routers1.msg_count.Control::2         3528                       (Unspecified)
system.caches.network.routers1.msg_bytes.Control::2        28224                       (Unspecified)
system.caches.network.routers1.msg_count.Data::2         3017                       (Unspecified)
system.caches.network.routers1.msg_bytes.Data::2       217224                       (Unspecified)
system.caches.network.routers1.msg_count.Response_Data::4         3528                       (Unspecified)
system.caches.network.routers1.msg_bytes.Response_Data::4       254016                       (Unspecified)
system.caches.network.routers1.msg_count.Writeback_Control::3         3016                       (Unspecified)
system.caches.network.routers1.msg_bytes.Writeback_Control::3        24128                       (Unspecified)
system.caches.network.routers1.port_buffers2.m_buf_msgs     0.029393                       # Average number of messages in buffer (Unspecified)
system.caches.network.routers1.port_buffers2.m_stall_time  8731.059399                       # Average number of cycles messages are stalled in this MB (Unspecified)
system.caches.network.routers1.port_buffers6.m_buf_msgs     0.014524                       # Average number of messages in buffer (Unspecified)
system.caches.network.routers1.port_buffers6.m_stall_time  1957.129384                       # Average number of cycles messages are stalled in this MB (Unspecified)
system.caches.network.routers1.port_buffers7.m_buf_msgs     0.015907                       # Average number of messages in buffer (Unspecified)
system.caches.network.routers1.port_buffers7.m_stall_time  2002.649661                       # Average number of cycles messages are stalled in this MB (Unspecified)
system.caches.network.routers1.power_state.pwrStateResidencyTicks::UNDEFINED    222670000                       # Cumulative time (in ticks) in various power states (Tick)
system.caches.network.routers1.throttle00.link_utilization     6.888669                       (Unspecified)
system.caches.network.routers1.throttle00.msg_count.Control::2         3528                       (Unspecified)
system.caches.network.routers1.throttle00.msg_bytes.Control::2        28224                       (Unspecified)
system.caches.network.routers1.throttle00.msg_count.Data::2         3017                       (Unspecified)
system.caches.network.routers1.throttle00.msg_bytes.Data::2       217224                       (Unspecified)
system.caches.network.routers1.throttle01.link_utilization     7.807069                       (Unspecified)
system.caches.network.routers1.throttle01.msg_count.Response_Data::4         3528                       (Unspecified)
system.caches.network.routers1.throttle01.msg_bytes.Response_Data::4       254016                       (Unspecified)
system.caches.network.routers1.throttle01.msg_count.Writeback_Control::3         3016                       (Unspecified)
system.caches.network.routers1.throttle01.msg_bytes.Writeback_Control::3        24128                       (Unspecified)
system.caches.power_state.pwrStateResidencyTicks::UNDEFINED    222670000                       # Cumulative time (in ticks) in various power states (Tick)
system.caches.sequencers.power_state.pwrStateResidencyTicks::UNDEFINED    222670000                       # Cumulative time (in ticks) in various power states (Tick)
system.caches.sys_port_proxy.power_state.pwrStateResidencyTicks::UNDEFINED    222670000                       # Cumulative time (in ticks) in various power states (Tick)
system.clk_domain.clock                          1000                       # Clock period in ticks (Tick)
system.clk_domain.voltage_domain.voltage            1                       # Voltage in Volts (Volt)
system.cpu.numCycles                           222671                       # Number of cpu cycles simulated (Cycle)
system.cpu.numWorkItemsStarted                      0                       # Number of work items this cpu started (Count)
system.cpu.numWorkItemsCompleted                    0                       # Number of work items this cpu completed (Count)
system.cpu.instsAdded                          341199                       # Number of instructions added to the IQ (excludes non-spec) (Count)
system.cpu.nonSpecInstsAdded                        5                       # Number of non-speculative instructions added to the IQ (Count)
system.cpu.instsIssued                         304220                       # Number of instructions issued (Count)
system.cpu.squashedInstsIssued                    330                       # Number of squashed instructions issued (Count)
system.cpu.squashedInstsExamined               113807                       # Number of squashed instructions iterated over during squash; mainly for profiling (Count)
system.cpu.squashedOperandsExamined            161241                       # Number of squashed operands that are examined and possibly removed from graph (Count)
system.cpu.squashedNonSpecRemoved                   4                       # Number of squashed non-spec instructions that were removed (Count)
system.cpu.numIssuedDist::samples              191483                       # Number of insts issued each cycle (Count)
system.cpu.numIssuedDist::mean               1.588757                       # Number of insts issued each cycle (Count)
system.cpu.numIssuedDist::stdev              2.282967                       # Number of insts issued each cycle (Count)
system.cpu.numIssuedDist::underflows                0      0.00%      0.00% # Number of insts issued each cycle (Count)
system.cpu.numIssuedDist::0                    110014     57.45%     57.45% # Number of insts issued each cycle (Count)
system.cpu.numIssuedDist::1                     14431      7.54%     64.99% # Number of insts issued each cycle (Count)
system.cpu.numIssuedDist::2                     13246      6.92%     71.91% # Number of insts issued each cycle (Count)
system.cpu.numIssuedDist::3                     12404      6.48%     78.39% # Number of insts issued each cycle (Count)
system.cpu.numIssuedDist::4                     11946      6.24%     84.62% # Number of insts issued each cycle (Count)
system.cpu.numIssuedDist::5                     11104      5.80%     90.42% # Number of insts issued each cycle (Count)
system.cpu.numIssuedDist::6                      9375      4.90%     95.32% # Number of insts issued each cycle (Count)
system.cpu.numIssuedDist::7                      5173      2.70%     98.02% # Number of insts issued each cycle (Count)
system.cpu.numIssuedDist::8                      3790      1.98%    100.00% # Number of insts issued each cycle (Count)
system.cpu.numIssuedDist::overflows                 0      0.00%    100.00% # Number of insts issued each cycle (Count)
system.cpu.numIssuedDist::min_value                 0                       # Number of insts issued each cycle (Count)
system.cpu.numIssuedDist::max_value                 8                       # Number of insts issued each cycle (Count)
system.cpu.numIssuedDist::total                191483                       # Number of insts issued each cycle (Count)
system.cpu.statFuBusy::No_OpClass                   0      0.00%      0.00% # attempts to use FU when none available (Count)
system.cpu.statFuBusy::IntAlu                    3264     71.75%     71.75% # attempts to use FU when none available (Count)
system.cpu.statFuBusy::IntMult                      0      0.00%     71.75% # attempts to use FU when none available (Count)
system.cpu.statFuBusy::IntDiv                       0      0.00%     71.75% # attempts to use FU when none available (Count)
system.cpu.statFuBusy::FloatAdd                     0      0.00%     71.75% # attempts to use FU when none available (Count)
system.cpu.statFuBusy::FloatCmp                     0      0.00%     71.75% # attempts to use FU when none available (Count)
system.cpu.statFuBusy::FloatCvt                     0      0.00%     71.75% # attempts to use FU when none available (Count)
system.cpu.statFuBusy::FloatMult                    0      0.00%     71.75% # attempts to use FU when none available (Count)
system.cpu.statFuBusy::FloatMultAcc                 0      0.00%     71.75% # attempts to use FU when none available (Count)
system.cpu.statFuBusy::FloatDiv                     0      0.00%     71.75% # attempts to use FU when none available (Count)
system.cpu.statFuBusy::FloatMisc                    0      0.00%     71.75% # attempts to use FU when none available (Count)
system.cpu.statFuBusy::FloatSqrt                    0      0.00%     71.75% # attempts to use FU when none available (Count)
system.cpu.statFuBusy::SimdAdd                      0      0.00%     71.75% # attempts to use FU when none available (Count)
system.cpu.statFuBusy::SimdAddAcc                   0      0.00%     71.75% # attempts to use FU when none available (Count)
system.cpu.statFuBusy::SimdAlu                     22      0.48%     72.24% # attempts to use FU when none available (Count)
system.cpu.statFuBusy::SimdCmp                      0      0.00%     72.24% # attempts to use FU when none available (Count)
system.cpu.statFuBusy::SimdCvt                     14      0.31%     72.54% # attempts to use FU when none available (Count)
system.cpu.statFuBusy::SimdMisc                     1      0.02%     72.57% # attempts to use FU when none available (Count)
system.cpu.statFuBusy::SimdMult                     0      0.00%     72.57% # attempts to use FU when none available (Count)
system.cpu.statFuBusy::SimdMultAcc                  0      0.00%     72.57% # attempts to use FU when none available (Count)
system.cpu.statFuBusy::SimdShift                   18      0.40%     72.96% # attempts to use FU when none available (Count)
system.cpu.statFuBusy::SimdShiftAcc                 0      0.00%     72.96% # attempts to use FU when none available (Count)
system.cpu.statFuBusy::SimdDiv                      0      0.00%     72.96% # attempts to use FU when none available (Count)
system.cpu.statFuBusy::SimdSqrt                     0      0.00%     72.96% # attempts to use FU when none available (Count)
system.cpu.statFuBusy::SimdFloatAdd                 0      0.00%     72.96% # attempts to use FU when none available (Count)
system.cpu.statFuBusy::SimdFloatAlu                 0      0.00%     72.96% # attempts to use FU when none available (Count)
system.cpu.statFuBusy::SimdFloatCmp                 0      0.00%     72.96% # attempts to use FU when none available (Count)
system.cpu.statFuBusy::SimdFloatCvt                 0      0.00%     72.96% # attempts to use FU when none available (Count)
system.cpu.statFuBusy::SimdFloatDiv                 0      0.00%     72.96% # attempts to use FU when none available (Count)
system.cpu.statFuBusy::SimdFloatMisc                0      0.00%     72.96% # attempts to use FU when none available (Count)
system.cpu.statFuBusy::SimdFloatMult                0      0.00%     72.96% # attempts to use FU when none available (Count)
system.cpu.statFuBusy::SimdFloatMultAcc             0      0.00%     72.96% # attempts to use FU when none available (Count)
system.cpu.statFuBusy::SimdFloatSqrt                0      0.00%     72.96% # attempts to use FU when none available (Count)
system.cpu.statFuBusy::SimdReduceAdd                0      0.00%     72.96% # attempts to use FU when none available (Count)
system.cpu.statFuBusy::SimdReduceAlu                0      0.00%     72.96% # attempts to use FU when none available (Count)
system.cpu.statFuBusy::SimdReduceCmp                0      0.00%     72.96% # attempts to use FU when none available (Count)
system.cpu.statFuBusy::SimdFloatReduceAdd            0      0.00%     72.96% # attempts to use FU when none available (Count)
system.cpu.statFuBusy::SimdFloatReduceCmp            0      0.00%     72.96% # attempts to use FU when none available (Count)
system.cpu.statFuBusy::SimdAes                      0      0.00%     72.96% # attempts to use FU when none available (Count)
system.cpu.statFuBusy::SimdAesMix                   0      0.00%     72.96% # attempts to use FU when none available (Count)
system.cpu.statFuBusy::SimdSha1Hash                 0      0.00%     72.96% # attempts to use FU when none available (Count)
system.cpu.statFuBusy::SimdSha1Hash2                0      0.00%     72.96% # attempts to use FU when none available (Count)
system.cpu.statFuBusy::SimdSha256Hash               0      0.00%     72.96% # attempts to use FU when none available (Count)
system.cpu.statFuBusy::SimdSha256Hash2              0      0.00%     72.96% # attempts to use FU when none available (Count)
system.cpu.statFuBusy::SimdShaSigma2                0      0.00%     72.96% # attempts to use FU when none available (Count)
system.cpu.statFuBusy::SimdShaSigma3                0      0.00%     72.96% # attempts to use FU when none available (Count)
system.cpu.statFuBusy::SimdPredAlu                  0      0.00%     72.96% # attempts to use FU when none available (Count)
system.cpu.statFuBusy::MemRead                    764     16.79%     89.76% # attempts to use FU when none available (Count)
system.cpu.statFuBusy::MemWrite                   428      9.41%     99.16% # attempts to use FU when none available (Count)
system.cpu.statFuBusy::FloatMemRead                15      0.33%     99.49% # attempts to use FU when none available (Count)
system.cpu.statFuBusy::FloatMemWrite               23      0.51%    100.00% # attempts to use FU when none available (Count)
system.cpu.statFuBusy::IprAccess                    0      0.00%    100.00% # attempts to use FU when none available (Count)
system.cpu.statFuBusy::InstPrefetch                 0      0.00%    100.00% # attempts to use FU when none available (Count)
system.cpu.statIssuedInstType_0::No_OpClass         3369      1.11%      1.11% # Number of instructions issued per FU type, per thread (Count)
system.cpu.statIssuedInstType_0::IntAlu        226516     74.46%     75.57% # Number of instructions issued per FU type, per thread (Count)
system.cpu.statIssuedInstType_0::IntMult           23      0.01%     75.57% # Number of instructions issued per FU type, per thread (Count)
system.cpu.statIssuedInstType_0::IntDiv          1989      0.65%     76.23% # Number of instructions issued per FU type, per thread (Count)
system.cpu.statIssuedInstType_0::FloatAdd          651      0.21%     76.44% # Number of instructions issued per FU type, per thread (Count)
system.cpu.statIssuedInstType_0::FloatCmp            0      0.00%     76.44% # Number of instructions issued per FU type, per thread (Count)
system.cpu.statIssuedInstType_0::FloatCvt            0      0.00%     76.44% # Number of instructions issued per FU type, per thread (Count)
system.cpu.statIssuedInstType_0::FloatMult            0      0.00%     76.44% # Number of instructions issued per FU type, per thread (Count)
system.cpu.statIssuedInstType_0::FloatMultAcc            0      0.00%     76.44% # Number of instructions issued per FU type, per thread (Count)
system.cpu.statIssuedInstType_0::FloatDiv            0      0.00%     76.44% # Number of instructions issued per FU type, per thread (Count)
system.cpu.statIssuedInstType_0::FloatMisc            0      0.00%     76.44% # Number of instructions issued per FU type, per thread (Count)
system.cpu.statIssuedInstType_0::FloatSqrt            0      0.00%     76.44% # Number of instructions issued per FU type, per thread (Count)
system.cpu.statIssuedInstType_0::SimdAdd          765      0.25%     76.69% # Number of instructions issued per FU type, per thread (Count)
system.cpu.statIssuedInstType_0::SimdAddAcc            0      0.00%     76.69% # Number of instructions issued per FU type, per thread (Count)
system.cpu.statIssuedInstType_0::SimdAlu         1913      0.63%     77.32% # Number of instructions issued per FU type, per thread (Count)
system.cpu.statIssuedInstType_0::SimdCmp            0      0.00%     77.32% # Number of instructions issued per FU type, per thread (Count)
system.cpu.statIssuedInstType_0::SimdCvt         1801      0.59%     77.91% # Number of instructions issued per FU type, per thread (Count)
system.cpu.statIssuedInstType_0::SimdMisc         1308      0.43%     78.34% # Number of instructions issued per FU type, per thread (Count)
system.cpu.statIssuedInstType_0::SimdMult            0      0.00%     78.34% # Number of instructions issued per FU type, per thread (Count)
system.cpu.statIssuedInstType_0::SimdMultAcc            0      0.00%     78.34% # Number of instructions issued per FU type, per thread (Count)
system.cpu.statIssuedInstType_0::SimdShift          619      0.20%     78.55% # Number of instructions issued per FU type, per thread (Count)
system.cpu.statIssuedInstType_0::SimdShiftAcc            0      0.00%     78.55% # Number of instructions issued per FU type, per thread (Count)
system.cpu.statIssuedInstType_0::SimdDiv            0      0.00%     78.55% # Number of instructions issued per FU type, per thread (Count)
system.cpu.statIssuedInstType_0::SimdSqrt            0      0.00%     78.55% # Number of instructions issued per FU type, per thread (Count)
system.cpu.statIssuedInstType_0::SimdFloatAdd            0      0.00%     78.55% # Number of instructions issued per FU type, per thread (Count)
system.cpu.statIssuedInstType_0::SimdFloatAlu            0      0.00%     78.55% # Number of instructions issued per FU type, per thread (Count)
system.cpu.statIssuedInstType_0::SimdFloatCmp            0      0.00%     78.55% # Number of instructions issued per FU type, per thread (Count)
system.cpu.statIssuedInstType_0::SimdFloatCvt            0      0.00%     78.55% # Number of instructions issued per FU type, per thread (Count)
system.cpu.statIssuedInstType_0::SimdFloatDiv            0      0.00%     78.55% # Number of instructions issued per FU type, per thread (Count)
system.cpu.statIssuedInstType_0::SimdFloatMisc            0      0.00%     78.55% # Number of instructions issued per FU type, per thread (Count)
system.cpu.statIssuedInstType_0::SimdFloatMult            0      0.00%     78.55% # Number of instructions issued per FU type, per thread (Count)
system.cpu.statIssuedInstType_0::SimdFloatMultAcc            0      0.00%     78.55% # Number of instructions issued per FU type, per thread (Count)
system.cpu.statIssuedInstType_0::SimdFloatSqrt            0      0.00%     78.55% # Number of instructions issued per FU type, per thread (Count)
system.cpu.statIssuedInstType_0::SimdReduceAdd            0      0.00%     78.55% # Number of instructions issued per FU type, per thread (Count)
system.cpu.statIssuedInstType_0::SimdReduceAlu            0      0.00%     78.55% # Number of instructions issued per FU type, per thread (Count)
system.cpu.statIssuedInstType_0::SimdReduceCmp            0      0.00%     78.55% # Number of instructions issued per FU type, per thread (Count)
system.cpu.statIssuedInstType_0::SimdFloatReduceAdd            0      0.00%     78.55% # Number of instructions issued per FU type, per thread (Count)
system.cpu.statIssuedInstType_0::SimdFloatReduceCmp            0      0.00%     78.55% # Number of instructions issued per FU type, per thread (Count)
system.cpu.statIssuedInstType_0::SimdAes            0      0.00%     78.55% # Number of instructions issued per FU type, per thread (Count)
system.cpu.statIssuedInstType_0::SimdAesMix            0      0.00%     78.55% # Number of instructions issued per FU type, per thread (Count)
system.cpu.statIssuedInstType_0::SimdSha1Hash            0      0.00%     78.55% # Number of instructions issued per FU type, per thread (Count)
system.cpu.statIssuedInstType_0::SimdSha1Hash2            0      0.00%     78.55% # Number of instructions issued per FU type, per thread (Count)
system.cpu.statIssuedInstType_0::SimdSha256Hash            0      0.00%     78.55% # Number of instructions issued per FU type, per thread (Count)
system.cpu.statIssuedInstType_0::SimdSha256Hash2            0      0.00%     78.55% # Number of instructions issued per FU type, per thread (Count)
system.cpu.statIssuedInstType_0::SimdShaSigma2            0      0.00%     78.55% # Number of instructions issued per FU type, per thread (Count)
system.cpu.statIssuedInstType_0::SimdShaSigma3            0      0.00%     78.55% # Number of instructions issued per FU type, per thread (Count)
system.cpu.statIssuedInstType_0::SimdPredAlu            0      0.00%     78.55% # Number of instructions issued per FU type, per thread (Count)
system.cpu.statIssuedInstType_0::MemRead        43855     14.42%     92.96% # Number of instructions issued per FU type, per thread (Count)
system.cpu.statIssuedInstType_0::MemWrite        17653      5.80%     98.76% # Number of instructions issued per FU type, per thread (Count)
system.cpu.statIssuedInstType_0::FloatMemRead         2495      0.82%     99.58% # Number of instructions issued per FU type, per thread (Count)
system.cpu.statIssuedInstType_0::FloatMemWrite         1263      0.42%    100.00% # Number of instructions issued per FU type, per thread (Count)
system.cpu.statIssuedInstType_0::IprAccess            0      0.00%    100.00% # Number of instructions issued per FU type, per thread (Count)
system.cpu.statIssuedInstType_0::InstPrefetch            0      0.00%    100.00% # Number of instructions issued per FU type, per thread (Count)
system.cpu.statIssuedInstType_0::total         304220                       # Number of instructions issued per FU type, per thread (Count)
system.cpu.issueRate                         1.366231                       # Inst issue rate ((Count/Cycle))
system.cpu.fuBusy                                4549                       # FU busy when requested (Count)
system.cpu.fuBusyRate                        0.014953                       # FU busy rate (busy events/executed inst) ((Count/Count))
system.cpu.intInstQueueReads                   782399                       # Number of integer instruction queue reads (Count)
system.cpu.intInstQueueWrites                  435558                       # Number of integer instruction queue writes (Count)
system.cpu.intInstQueueWakeupAccesses          284287                       # Number of integer instruction queue wakeup accesses (Count)
system.cpu.fpInstQueueReads                     22403                       # Number of floating instruction queue reads (Count)
system.cpu.fpInstQueueWrites                    19510                       # Number of floating instruction queue writes (Count)
system.cpu.fpInstQueueWakeupAccesses            10533                       # Number of floating instruction queue wakeup accesses (Count)
system.cpu.vecInstQueueReads                        0                       # Number of vector instruction queue reads (Count)
system.cpu.vecInstQueueWrites                       0                       # Number of vector instruction queue writes (Count)
system.cpu.vecInstQueueWakeupAccesses               0                       # Number of vector instruction queue wakeup accesses (Count)
system.cpu.intAluAccesses                      294177                       # Number of integer alu accesses (Count)
system.cpu.fpAluAccesses                        11223                       # Number of floating point alu accesses (Count)
system.cpu.vecAluAccesses                           0                       # Number of vector alu accesses (Count)
system.cpu.idleCycles                               0                       # Number of cycles IEW is idle (Cycle)
system.cpu.squashCycles                          2586                       # Number of cycles IEW is squashing (Cycle)
system.cpu.blockCycles                          49813                       # Number of cycles IEW is blocking (Cycle)
system.cpu.unblockCycles                         3006                       # Number of cycles IEW is unblocking (Cycle)
system.cpu.dispatchedInsts                     341204                       # Number of instructions dispatched to IQ (Count)
system.cpu.dispSquashedInsts                      453                       # Number of squashed instructions skipped by dispatch (Count)
system.cpu.dispLoadInsts                        48167                       # Number of dispatched load instructions (Count)
system.cpu.dispStoreInsts                       21128                       # Number of dispatched store instructions (Count)
system.cpu.dispNonSpecInsts                         5                       # Number of dispatched non-speculative instructions (Count)
system.cpu.iqFullEvents                           865                       # Number of times the IQ has become full, causing a stall (Count)
system.cpu.lsqFullEvents                         1756                       # Number of times the LSQ has become full, causing a stall (Count)
system.cpu.memOrderViolationEvents                 65                       # Number of memory order violations (Count)
system.cpu.predictedTakenIncorrect                566                       # Number of branches that were predicted taken incorrectly (Count)
system.cpu.predictedNotTakenIncorrect            2306                       # Number of branches that were predicted not taken incorrectly (Count)
system.cpu.branchMispredicts                     2872                       # Number of branch mispredicts detected at execute (Count)
system.cpu.numInsts                            299587                       # Number of executed instructions (Count)
system.cpu.numLoadInsts                         45270                       # Number of load instructions executed (Count)
system.cpu.numSquashedInsts                      4633                       # Number of squashed instructions skipped in execute (Count)
system.cpu.numSwp                                   0                       # Number of swp insts executed (Count)
system.cpu.numNop                                   0                       # Number of nop insts executed (Count)
system.cpu.numRefs                              63744                       # Number of memory reference insts executed (Count)
system.cpu.numBranches                          28126                       # Number of branches executed (Count)
system.cpu.numStoreInsts                        18474                       # Number of stores executed (Count)
system.cpu.numRate                           1.345424                       # Inst execution rate ((Count/Cycle))
system.cpu.instsToCommit                       296343                       # Cumulative count of insts sent to commit (Count)
system.cpu.writebackCount                      294820                       # Cumulative count of insts written-back (Count)
system.cpu.producerInst                        222149                       # Number of instructions producing a value (Count)
system.cpu.consumerInst                        387227                       # Number of instructions consuming a value (Count)
system.cpu.wbRate                            1.324016                       # Insts written-back per cycle ((Count/Cycle))
system.cpu.wbFanout                          0.573692                       # Average fanout of values written-back ((Count/Count))
system.cpu.timesIdled                             776                       # Number of times that the entire CPU went into an idle state and unscheduled itself (Count)
system.cpu.idleCycles                           31188                       # Total number of cycles that the CPU has spent unscheduled due to idling (Cycle)
system.cpu.committedInsts                      123064                       # Number of Instructions Simulated (Count)
system.cpu.committedOps                        227381                       # Number of Ops (including micro ops) Simulated (Count)
system.cpu.cpi                               1.809392                       # CPI: Cycles Per Instruction ((Cycle/Count))
system.cpu.totalCpi                          1.809392                       # CPI: Total CPI of All Threads ((Cycle/Count))
system.cpu.ipc                               0.552672                       # IPC: Instructions Per Cycle ((Count/Cycle))
system.cpu.totalIpc                          0.552672                       # IPC: Total IPC of All Threads ((Count/Cycle))
system.cpu.intRegfileReads                     440837                       # Number of integer regfile reads (Count)
system.cpu.intRegfileWrites                    241310                       # Number of integer regfile writes (Count)
system.cpu.fpRegfileReads                       15815                       # Number of floating regfile reads (Count)
system.cpu.fpRegfileWrites                       8529                       # Number of floating regfile writes (Count)
system.cpu.ccRegfileReads                      159920                       # number of cc regfile reads (Count)
system.cpu.ccRegfileWrites                     103493                       # number of cc regfile writes (Count)
system.cpu.miscRegfileReads                    123600                       # number of misc regfile reads (Count)
system.cpu.MemDepUnit__0.insertedLoads          48167                       # Number of loads inserted to the mem dependence unit. (Count)
system.cpu.MemDepUnit__0.insertedStores         21128                       # Number of stores inserted to the mem dependence unit. (Count)
system.cpu.MemDepUnit__0.conflictingLoads         1197                       # Number of conflicting loads. (Count)
system.cpu.MemDepUnit__0.conflictingStores          661                       # Number of conflicting stores. (Count)
system.cpu.MemDepUnit__1.insertedLoads              0                       # Number of loads inserted to the mem dependence unit. (Count)
system.cpu.MemDepUnit__1.insertedStores             0                       # Number of stores inserted to the mem dependence unit. (Count)
system.cpu.MemDepUnit__1.conflictingLoads            0                       # Number of conflicting loads. (Count)
system.cpu.MemDepUnit__1.conflictingStores            0                       # Number of conflicting stores. (Count)
system.cpu.MemDepUnit__2.insertedLoads              0                       # Number of loads inserted to the mem dependence unit. (Count)
system.cpu.MemDepUnit__2.insertedStores             0                       # Number of stores inserted to the mem dependence unit. (Count)
system.cpu.MemDepUnit__2.conflictingLoads            0                       # Number of conflicting loads. (Count)
system.cpu.MemDepUnit__2.conflictingStores            0                       # Number of conflicting stores. (Count)
system.cpu.MemDepUnit__3.insertedLoads              0                       # Number of loads inserted to the mem dependence unit. (Count)
system.cpu.MemDepUnit__3.insertedStores             0                       # Number of stores inserted to the mem dependence unit. (Count)
system.cpu.MemDepUnit__3.conflictingLoads            0                       # Number of conflicting loads. (Count)
system.cpu.MemDepUnit__3.conflictingStores            0                       # Number of conflicting stores. (Count)
system.cpu.branchPred.lookups                   39976                       # Number of BP lookups (Count)
system.cpu.branchPred.condPredicted             33576                       # Number of conditional branches predicted (Count)
system.cpu.branchPred.condIncorrect              2727                       # Number of conditional branches incorrect (Count)
system.cpu.branchPred.BTBLookups                15608                       # Number of BTB lookups (Count)
system.cpu.branchPred.BTBHits                   13966                       # Number of BTB hits (Count)
system.cpu.branchPred.BTBHitRatio            0.894798                       # BTB Hit Ratio (Ratio)
system.cpu.branchPred.RASUsed                    1740                       # Number of times the RAS was used to get a target. (Count)
system.cpu.branchPred.RASIncorrect                  4                       # Number of incorrect RAS predictions. (Count)
[...]
system.mem_ctrl.rdPerTurnAround::gmean      15.395563                       # Reads before turning the bus around for writes (Count)
system.mem_ctrl.rdPerTurnAround::stdev       1.896363                       # Reads before turning the bus around for writes (Count)
system.mem_ctrl.rdPerTurnAround::5                  1      2.27%      2.27% # Reads before turning the bus around for writes (Count)
system.mem_ctrl.rdPerTurnAround::11                 1      2.27%      4.55% # Reads before turning the bus around for writes (Count)
system.mem_ctrl.rdPerTurnAround::14                 1      2.27%      6.82% # Reads before turning the bus around for writes (Count)
system.mem_ctrl.rdPerTurnAround::15                 5     11.36%     18.18% # Reads before turning the bus around for writes (Count)
system.mem_ctrl.rdPerTurnAround::16                32     72.73%     90.91% # Reads before turning the bus around for writes (Count)
system.mem_ctrl.rdPerTurnAround::17                 3      6.82%     97.73% # Reads before turning the bus around for writes (Count)
system.mem_ctrl.rdPerTurnAround::18                 1      2.27%    100.00% # Reads before turning the bus around for writes (Count)
system.mem_ctrl.rdPerTurnAround::total             44                       # Reads before turning the bus around for writes (Count)
system.mem_ctrl.wrPerTurnAround::samples           44                       # Writes before turning the bus around for reads (Count)
system.mem_ctrl.wrPerTurnAround::mean       16.113636                       # Writes before turning the bus around for reads (Count)
system.mem_ctrl.wrPerTurnAround::gmean      16.105669                       # Writes before turning the bus around for reads (Count)
system.mem_ctrl.wrPerTurnAround::stdev       0.537691                       # Writes before turning the bus around for reads (Count)
system.mem_ctrl.wrPerTurnAround::16                42     95.45%     95.45% # Writes before turning the bus around for reads (Count)
system.mem_ctrl.wrPerTurnAround::18                 1      2.27%     97.73% # Writes before turning the bus around for reads (Count)
system.mem_ctrl.wrPerTurnAround::19                 1      2.27%    100.00% # Writes before turning the bus around for reads (Count)
system.mem_ctrl.wrPerTurnAround::total             44                       # Writes before turning the bus around for reads (Count)
system.mem_ctrl.bytesReadWrQ                     1408                       # Total number of bytes read from write queue (Byte)
system.mem_ctrl.bytesReadSys                    45504                       # Total read bytes from the system interface side (Byte)
system.mem_ctrl.bytesWrittenSys                 45504                       # Total written bytes from the system interface side (Byte)
system.mem_ctrl.avgRdBWSys               78982859.62247775                       # Average system read bandwidth in Byte/s ((Byte/Second))
system.mem_ctrl.avgWrBWSys               78982859.62247775                       # Average system write bandwidth in Byte/s ((Byte/Second))
system.mem_ctrl.totGap                      721417000                       # Total gap between requests (Tick)
system.mem_ctrl.avgGap                      507325.60                       # Average gap between requests ((Tick/Count))
system.mem_ctrl.requestorReadBytes::caches.controllers1        44096                       # Per-requestor bytes read from memory (Byte)
system.mem_ctrl.requestorWriteBytes::caches.controllers1        45376                       # Per-requestor bytes write to memory (Byte)
system.mem_ctrl.requestorReadRate::caches.controllers1 76538945.541332170367                       # Per-requestor bytes read from memory rate ((Byte/Second))
system.mem_ctrl.requestorWriteRate::caches.controllers1 78760685.615100890398                       # Per-requestor bytes write to memory rate ((Byte/Second))
system.mem_ctrl.requestorReadAccesses::caches.controllers1          711                       # Per-requestor read serviced memory accesses (Count)
system.mem_ctrl.requestorWriteAccesses::caches.controllers1          711                       # Per-requestor write serviced memory accesses (Count)
system.mem_ctrl.requestorReadTotalLat::caches.controllers1     26830000                       # Per-requestor read total memory access latency (Tick)
system.mem_ctrl.requestorWriteTotalLat::caches.controllers1  21400228500                       # Per-requestor write total memory access latency (Tick)
system.mem_ctrl.requestorReadAvgLat::caches.controllers1     37735.58                       # Per-requestor read average memory access latency ((Tick/Count))
system.mem_ctrl.requestorWriteAvgLat::caches.controllers1  30098774.26                       # Per-requestor write average memory access latency ((Tick/Count))
system.mem_ctrl.dram.bytesRead::caches.controllers1        45504                       # Number of bytes read from this memory (Byte)
system.mem_ctrl.dram.bytesRead::total           45504                       # Number of bytes read from this memory (Byte)
system.mem_ctrl.dram.bytesWritten::caches.controllers1        45504                       # Number of bytes written to this memory (Byte)
system.mem_ctrl.dram.bytesWritten::total        45504                       # Number of bytes written to this memory (Byte)
system.mem_ctrl.dram.numReads::caches.controllers1          711                       # Number of read requests responded to by this memory (Count)
system.mem_ctrl.dram.numReads::total              711                       # Number of read requests responded to by this memory (Count)
system.mem_ctrl.dram.numWrites::caches.controllers1          711                       # Number of write requests responded to by this memory (Count)
system.mem_ctrl.dram.numWrites::total             711                       # Number of write requests responded to by this memory (Count)
system.mem_ctrl.dram.bwRead::caches.controllers1     78982860                       # Total read bandwidth from this memory ((Byte/Second))
system.mem_ctrl.dram.bwRead::total           78982860                       # Total read bandwidth from this memory ((Byte/Second))
system.mem_ctrl.dram.bwWrite::caches.controllers1     78982860                       # Write bandwidth from this memory ((Byte/Second))
system.mem_ctrl.dram.bwWrite::total          78982860                       # Write bandwidth from this memory ((Byte/Second))
system.mem_ctrl.dram.bwTotal::caches.controllers1    157965719                       # Total bandwidth to/from this memory ((Byte/Second))
system.mem_ctrl.dram.bwTotal::total         157965719                       # Total bandwidth to/from this memory ((Byte/Second))
system.mem_ctrl.dram.readBursts                   689                       # Number of DRAM read bursts (Count)
system.mem_ctrl.dram.writeBursts                  709                       # Number of DRAM write bursts (Count)
system.mem_ctrl.dram.perBankRdBursts::0            36                       # Per bank write bursts (Count)
system.mem_ctrl.dram.perBankRdBursts::1            20                       # Per bank write bursts (Count)
system.mem_ctrl.dram.perBankRdBursts::2            73                       # Per bank write bursts (Count)
system.mem_ctrl.dram.perBankRdBursts::3           150                       # Per bank write bursts (Count)
system.mem_ctrl.dram.perBankRdBursts::4            61                       # Per bank write bursts (Count)
system.mem_ctrl.dram.perBankRdBursts::5            41                       # Per bank write bursts (Count)
system.mem_ctrl.dram.perBankRdBursts::6            17                       # Per bank write bursts (Count)
system.mem_ctrl.dram.perBankRdBursts::7             5                       # Per bank write bursts (Count)
system.mem_ctrl.dram.perBankRdBursts::8            23                       # Per bank write bursts (Count)
system.mem_ctrl.dram.perBankRdBursts::9            29                       # Per bank write bursts (Count)
system.mem_ctrl.dram.perBankRdBursts::10           18                       # Per bank write bursts (Count)
system.mem_ctrl.dram.perBankRdBursts::11          109                       # Per bank write bursts (Count)
system.mem_ctrl.dram.perBankRdBursts::12           19                       # Per bank write bursts (Count)
system.mem_ctrl.dram.perBankRdBursts::13           13                       # Per bank write bursts (Count)
system.mem_ctrl.dram.perBankRdBursts::14           40                       # Per bank write bursts (Count)
system.mem_ctrl.dram.perBankRdBursts::15           35                       # Per bank write bursts (Count)
system.mem_ctrl.dram.perBankWrBursts::0           136                       # Per bank write bursts (Count)
system.mem_ctrl.dram.perBankWrBursts::1           121                       # Per bank write bursts (Count)
system.mem_ctrl.dram.perBankWrBursts::2           133                       # Per bank write bursts (Count)
system.mem_ctrl.dram.perBankWrBursts::3            59                       # Per bank write bursts (Count)
system.mem_ctrl.dram.perBankWrBursts::4             4                       # Per bank write bursts (Count)
system.mem_ctrl.dram.perBankWrBursts::5             8                       # Per bank write bursts (Count)
system.mem_ctrl.dram.perBankWrBursts::6             2                       # Per bank write bursts (Count)
system.mem_ctrl.dram.perBankWrBursts::7             1                       # Per bank write bursts (Count)
system.mem_ctrl.dram.perBankWrBursts::8             2                       # Per bank write bursts (Count)
system.mem_ctrl.dram.perBankWrBursts::9            12                       # Per bank write bursts (Count)
system.mem_ctrl.dram.perBankWrBursts::10            4                       # Per bank write bursts (Count)
system.mem_ctrl.dram.perBankWrBursts::11           39                       # Per bank write bursts (Count)
system.mem_ctrl.dram.perBankWrBursts::12            7                       # Per bank write bursts (Count)
system.mem_ctrl.dram.perBankWrBursts::13            3                       # Per bank write bursts (Count)
system.mem_ctrl.dram.perBankWrBursts::14           34                       # Per bank write bursts (Count)
system.mem_ctrl.dram.perBankWrBursts::15          144                       # Per bank write bursts (Count)
system.mem_ctrl.dram.totQLat                 13911250                       # Total ticks spent queuing (Tick)
system.mem_ctrl.dram.totBusLat                3445000                       # Total ticks spent in databus transfers (Tick)
system.mem_ctrl.dram.totMemAccLat            26830000                       # Total ticks spent from burst creation until serviced by the DRAM (Tick)
system.mem_ctrl.dram.avgQLat                 20190.49                       # Average queueing delay per DRAM burst ((Tick/Count))
system.mem_ctrl.dram.avgBusLat                5000.00                       # Average bus latency per DRAM burst ((Tick/Count))
system.mem_ctrl.dram.avgMemAccLat            38940.49                       # Average memory access latency per DRAM burst ((Tick/Count))
system.mem_ctrl.dram.readRowHits                  533                       # Number of row buffer hits during reads (Count)
system.mem_ctrl.dram.writeRowHits                 610                       # Number of row buffer hits during writes (Count)
system.mem_ctrl.dram.readRowHitRate             77.36                       # Row buffer hit rate for reads (Ratio)
system.mem_ctrl.dram.writeRowHitRate            86.04                       # Row buffer hit rate for writes (Ratio)
system.mem_ctrl.dram.bytesPerActivate::samples          241                       # Bytes accessed per row activation (Byte)
system.mem_ctrl.dram.bytesPerActivate::mean   356.381743                       # Bytes accessed per row activation (Byte)
system.mem_ctrl.dram.bytesPerActivate::gmean   225.933922                       # Bytes accessed per row activation (Byte)
system.mem_ctrl.dram.bytesPerActivate::stdev   328.711302                       # Bytes accessed per row activation (Byte)
system.mem_ctrl.dram.bytesPerActivate::0-127           65     26.97%     26.97% # Bytes accessed per row activation (Byte)
system.mem_ctrl.dram.bytesPerActivate::128-255           58     24.07%     51.04% # Bytes accessed per row activation (Byte)
system.mem_ctrl.dram.bytesPerActivate::256-383           33     13.69%     64.73% # Bytes accessed per row activation (Byte)
system.mem_ctrl.dram.bytesPerActivate::384-511           20      8.30%     73.03% # Bytes accessed per row activation (Byte)
system.mem_ctrl.dram.bytesPerActivate::512-639           13      5.39%     78.42% # Bytes accessed per row activation (Byte)
system.mem_ctrl.dram.bytesPerActivate::640-767           10      4.15%     82.57% # Bytes accessed per row activation (Byte)
system.mem_ctrl.dram.bytesPerActivate::768-895            5      2.07%     84.65% # Bytes accessed per row activation (Byte)
system.mem_ctrl.dram.bytesPerActivate::896-1023            9      3.73%     88.38% # Bytes accessed per row activation (Byte)
system.mem_ctrl.dram.bytesPerActivate::1024-1151           28     11.62%    100.00% # Bytes accessed per row activation (Byte)
system.mem_ctrl.dram.bytesPerActivate::total          241                       # Bytes accessed per row activation (Byte)
system.mem_ctrl.dram.bytesRead                  44096                       # Total number of bytes read from DRAM (Byte)
system.mem_ctrl.dram.bytesWritten               45376                       # Total number of bytes written to DRAM (Byte)
system.mem_ctrl.dram.avgRdBW                76.538946                       # Average DRAM read bandwidth in MiBytes/s ((Byte/Second))
system.mem_ctrl.dram.avgWrBW                78.760686                       # Average DRAM write bandwidth in MiBytes/s ((Byte/Second))
system.mem_ctrl.dram.peakBW                  12800.00                       # Theoretical peak bandwidth in MiByte/s ((Byte/Second))
system.mem_ctrl.dram.busUtil                     1.21                       # Data bus utilization in percentage (Ratio)
system.mem_ctrl.dram.busUtilRead                 0.60                       # Data bus utilization in percentage for reads (Ratio)
system.mem_ctrl.dram.busUtilWrite                0.62                       # Data bus utilization in percentage for writes (Ratio)
system.mem_ctrl.dram.pageHitRate                81.76                       # Row buffer hit rate, read and write combined (Ratio)
system.mem_ctrl.dram.power_state.pwrStateResidencyTicks::UNDEFINED    576125000                       # Cumulative time (in ticks) in various power states (Tick)
system.mem_ctrl.dram.rank0.actEnergy          1028160                       # Energy for activate commands per rank (pJ) (Joule)
system.mem_ctrl.dram.rank0.preEnergy           516120                       # Energy for precharge commands per rank (pJ) (Joule)
system.mem_ctrl.dram.rank0.readEnergy         2877420                       # Energy for read commands per rank (pJ) (Joule)
system.mem_ctrl.dram.rank0.writeEnergy        2422080                       # Energy for write commands per rank (pJ) (Joule)
system.mem_ctrl.dram.rank0.refreshEnergy 45483360.000000                       # Energy for refresh commands per rank (pJ) (Joule)
system.mem_ctrl.dram.rank0.actBackEnergy     39103710                       # Energy for active background per rank (pJ) (Joule)
system.mem_ctrl.dram.rank0.preBackEnergy    188302560                       # Energy for precharge background per rank (pJ) (Joule)
system.mem_ctrl.dram.rank0.actPowerDownEnergy            0                       # Energy for active power-down per rank (pJ) (Joule)
system.mem_ctrl.dram.rank0.prePowerDownEnergy            0                       # Energy for precharge power-down per rank (pJ) (Joule)
system.mem_ctrl.dram.rank0.selfRefreshEnergy            0                       # Energy for self refresh per rank (pJ) (Joule)
system.mem_ctrl.dram.rank0.totalEnergy      279733410                       # Total energy per rank (pJ) (Joule)
system.mem_ctrl.dram.rank0.averagePower    485.542912                       # Core power per rank (mW) (Watt)
system.mem_ctrl.dram.rank0.totalIdleTime            0                       # Total Idle time Per DRAM Rank (Tick)
system.mem_ctrl.dram.rank0.pwrStateTime::IDLE    489214500                       # Time in different power states (Tick)
system.mem_ctrl.dram.rank0.pwrStateTime::REF     19240000                       # Time in different power states (Tick)
system.mem_ctrl.dram.rank0.pwrStateTime::SREF            0                       # Time in different power states (Tick)
system.mem_ctrl.dram.rank0.pwrStateTime::PRE_PDN            0                       # Time in different power states (Tick)
system.mem_ctrl.dram.rank0.pwrStateTime::ACT     67670500                       # Time in different power states (Tick)
system.mem_ctrl.dram.rank0.pwrStateTime::ACT_PDN            0                       # Time in different power states (Tick)
system.mem_ctrl.dram.rank1.actEnergy           792540                       # Energy for activate commands per rank (pJ) (Joule)
system.mem_ctrl.dram.rank1.preEnergy           398475                       # Energy for precharge commands per rank (pJ) (Joule)
system.mem_ctrl.dram.rank1.readEnergy         2042040                       # Energy for read commands per rank (pJ) (Joule)
system.mem_ctrl.dram.rank1.writeEnergy        1278900                       # Energy for write commands per rank (pJ) (Joule)
system.mem_ctrl.dram.rank1.refreshEnergy 45483360.000000                       # Energy for refresh commands per rank (pJ) (Joule)
system.mem_ctrl.dram.rank1.actBackEnergy     39420060                       # Energy for active background per rank (pJ) (Joule)
system.mem_ctrl.dram.rank1.preBackEnergy    188036160                       # Energy for precharge background per rank (pJ) (Joule)
system.mem_ctrl.dram.rank1.actPowerDownEnergy            0                       # Energy for active power-down per rank (pJ) (Joule)
system.mem_ctrl.dram.rank1.prePowerDownEnergy            0                       # Energy for precharge power-down per rank (pJ) (Joule)
system.mem_ctrl.dram.rank1.selfRefreshEnergy            0                       # Energy for self refresh per rank (pJ) (Joule)
system.mem_ctrl.dram.rank1.totalEnergy      277451535                       # Total energy per rank (pJ) (Joule)
system.mem_ctrl.dram.rank1.averagePower    481.582183                       # Core power per rank (mW) (Watt)
system.mem_ctrl.dram.rank1.totalIdleTime            0                       # Total Idle time Per DRAM Rank (Tick)
system.mem_ctrl.dram.rank1.pwrStateTime::IDLE    488423500                       # Time in different power states (Tick)
system.mem_ctrl.dram.rank1.pwrStateTime::REF     19240000                       # Time in different power states (Tick)
system.mem_ctrl.dram.rank1.pwrStateTime::SREF            0                       # Time in different power states (Tick)
system.mem_ctrl.dram.rank1.pwrStateTime::PRE_PDN            0                       # Time in different power states (Tick)
system.mem_ctrl.dram.rank1.pwrStateTime::ACT     68461500                       # Time in different power states (Tick)
system.mem_ctrl.dram.rank1.pwrStateTime::ACT_PDN            0                       # Time in different power states (Tick)
system.mem_ctrl.power_state.pwrStateResidencyTicks::UNDEFINED    576125000                       # Cumulative time (in ticks) in various power states (Tick)
system.workload.inst.arm                            0                       # number of arm instructions executed (Count)
system.workload.inst.quiesce                        0                       # number of quiesce instructions executed (Count)

---------- End Simulation Statistics   ----------
