
---------- Begin Simulation Statistics ----------
simSeconds                                   0.051213                       # Number of seconds simulated (Second)
simTicks                                  51212600000                       # Number of ticks simulated (Tick)
finalTick                                 51212600000                       # Number of ticks from beginning of simulation (restored from checkpoints and never reset) (Tick)
simFreq                                  1000000000000                       # The number of ticks per simulated second ((Tick/Second))
hostSeconds                                    179.79                       # Real time elapsed on the host (Second)
hostTickRate                                284840743                       # The number of ticks simulated per host second (ticks/s) ((Tick/Second))
hostMemory                                    9639680                       # Number of bytes of host memory used (Byte)
simInsts                                     46698355                       # Number of instructions simulated (Count)
simOps                                       83201955                       # Number of ops (including micro ops) simulated (Count)
hostInstRate                                   259733                       # Simulator instruction rate (inst/s) ((Count/Second))
hostOpRate                                     462763                       # Simulator op (including micro ops) rate (op/s) ((Count/Second))
system.caches.delayHistogram::bucket_size            2                       # delay histogram for all message (Unspecified)
system.caches.delayHistogram::max_bucket           19                       # delay histogram for all message (Unspecified)
system.caches.delayHistogram::samples           71562                       # delay histogram for all message (Unspecified)
system.caches.delayHistogram::mean           0.028255                       # delay histogram for all message (Unspecified)
system.caches.delayHistogram::stdev          0.404881                       # delay histogram for all message (Unspecified)
system.caches.delayHistogram             |       71147     99.42%     99.42% |          97      0.14%     99.56% |         124      0.17%     99.73% |         114      0.16%     99.89% |          79      0.11%    100.00% |           0      0.00%    100.00% |           0      0.00%    100.00% |           0      0.00%    100.00% |           1      0.00%    100.00% |           0      0.00%    100.00% # delay histogram for all message (Unspecified)
system.caches.delayHistogram::total             71562                       # delay histogram for all message (Unspecified)
system.caches.m_outstandReqHistSeqr::bucket_size            2                       (Unspecified)
system.caches.m_outstandReqHistSeqr::max_bucket           19                       (Unspecified)
system.caches.m_outstandReqHistSeqr::samples     27808244                       (Unspecified)
system.caches.m_outstandReqHistSeqr::mean     1.342541                       (Unspecified)
system.caches.m_outstandReqHistSeqr::gmean     1.233482                       (Unspecified)
system.caches.m_outstandReqHistSeqr::stdev     0.703465                       (Unspecified)
system.caches.m_outstandReqHistSeqr      |    20563461     73.95%     73.95% |     6768156     24.34%     98.29% |      436360      1.57%     99.86% |       13353      0.05%     99.90% |       10318      0.04%     99.94% |       10642      0.04%     99.98% |        2944      0.01%     99.99% |        1660      0.01%    100.00% |        1350      0.00%    100.00% |           0      0.00%    100.00% (Unspecified)
system.caches.m_outstandReqHistSeqr::total     27808244                       (Unspecified)
system.caches.m_latencyHistSeqr::bucket_size           64                       (Unspecified)
system.caches.m_latencyHistSeqr::max_bucket          639                       (Unspecified)
system.caches.m_latencyHistSeqr::samples     28097175                       (Unspecified)
system.caches.m_latencyHistSeqr::mean        1.115991                       (Unspecified)
system.caches.m_latencyHistSeqr::gmean       1.012809                       (Unspecified)
system.caches.m_latencyHistSeqr::stdev       3.234757                       (Unspecified)
system.caches.m_latencyHistSeqr          |    28070355     99.90%     99.90% |       23641      0.08%     99.99% |        2540      0.01%    100.00% |         258      0.00%    100.00% |         251      0.00%    100.00% |         102      0.00%    100.00% |          11      0.00%    100.00% |          17      0.00%    100.00% |           0      0.00%    100.00% |           0      0.00%    100.00% (Unspecified)
system.caches.m_latencyHistSeqr::total       28097175                       (Unspecified)
system.caches.m_hitLatencyHistSeqr::bucket_size           32                       (Unspecified)
system.caches.m_hitLatencyHistSeqr::max_bucket          319                       (Unspecified)
system.caches.m_hitLatencyHistSeqr::samples     28061138                       (Unspecified)
system.caches.m_hitLatencyHistSeqr::mean     1.010376                       (Unspecified)
system.caches.m_hitLatencyHistSeqr::gmean     1.007170                       (Unspecified)
system.caches.m_hitLatencyHistSeqr::stdev     0.123156                       (Unspecified)
system.caches.m_hitLatencyHistSeqr       |    28061107    100.00%    100.00% |          21      0.00%    100.00% |           8      0.00%    100.00% |           0      0.00%    100.00% |           0      0.00%    100.00% |           2      0.00%    100.00% |           0      0.00%    100.00% |           0      0.00%    100.00% |           0      0.00%    100.00% |           0      0.00%    100.00% (Unspecified)
system.caches.m_hitLatencyHistSeqr::total     28061138                       (Unspecified)
system.caches.m_missLatencyHistSeqr::bucket_size           64                       (Unspecified)
system.caches.m_missLatencyHistSeqr::max_bucket          639                       (Unspecified)
system.caches.m_missLatencyHistSeqr::samples        36037                       (Unspecified)
system.caches.m_missLatencyHistSeqr::mean    83.355634                       (Unspecified)
system.caches.m_missLatencyHistSeqr::gmean    78.314350                       (Unspecified)
system.caches.m_missLatencyHistSeqr::stdev    37.073404                       (Unspecified)
system.caches.m_missLatencyHistSeqr      |        9227     25.60%     25.60% |       23633     65.58%     91.18% |        2538      7.04%     98.23% |         258      0.72%     98.94% |         251      0.70%     99.64% |         102      0.28%     99.92% |          11      0.03%     99.95% |          17      0.05%    100.00% |           0      0.00%    100.00% |           0      0.00%    100.00% (Unspecified)
system.caches.m_missLatencyHistSeqr::total        36037                       (Unspecified)
system.caches.delayVCHist.vnet_1::bucket_size            1                       # delay histogram for vnet_1 (Unspecified)
system.caches.delayVCHist.vnet_1::max_bucket            9                       # delay histogram for vnet_1 (Unspecified)
system.caches.delayVCHist.vnet_1::samples        36037                       # delay histogram for vnet_1 (Unspecified)
system.caches.delayVCHist.vnet_1::mean       0.001665                       # delay histogram for vnet_1 (Unspecified)
system.caches.delayVCHist.vnet_1::stdev      0.096547                       # delay histogram for vnet_1 (Unspecified)
system.caches.delayVCHist.vnet_1         |       36024     99.96%     99.96% |           0      0.00%     99.96% |           3      0.01%     99.97% |           0      0.00%     99.97% |           6      0.02%     99.99% |           0      0.00%     99.99% |           1      0.00%     99.99% |           0      0.00%     99.99% |           3      0.01%    100.00% |           0      0.00%    100.00% # delay histogram for vnet_1 (Unspecified)
system.caches.delayVCHist.vnet_1::total         36037                       # delay histogram for vnet_1 (Unspecified)
system.caches.delayVCHist.vnet_2::bucket_size            2                       # delay histogram for vnet_2 (Unspecified)
system.caches.delayVCHist.vnet_2::max_bucket           19                       # delay histogram for vnet_2 (Unspecified)
system.caches.delayVCHist.vnet_2::samples        35525                       # delay histogram for vnet_2 (Unspecified)
system.caches.delayVCHist.vnet_2::mean       0.055229                       # delay histogram for vnet_2 (Unspecified)
system.caches.delayVCHist.vnet_2::stdev      0.565087                       # delay histogram for vnet_2 (Unspecified)
system.caches.delayVCHist.vnet_2         |       35123     98.87%     98.87% |          94      0.26%     99.13% |         118      0.33%     99.47% |         113      0.32%     99.78% |          76      0.21%    100.00% |           0      0.00%    100.00% |           0      0.00%    100.00% |           0      0.00%    100.00% |           1      0.00%    100.00% |           0      0.00%    100.00% # delay histogram for vnet_2 (Unspecified)
system.caches.delayVCHist.vnet_2::total         35525                       # delay histogram for vnet_2 (Unspecified)
system.caches.L1Cache_Controller.Load         8930506      0.00%      0.00% (Unspecified)
system.caches.L1Cache_Controller.Ifetch       8215465      0.00%      0.00% (Unspecified)
system.caches.L1Cache_Controller.Store       10951205      0.00%      0.00% (Unspecified)
system.caches.L1Cache_Controller.Data           36037      0.00%      0.00% (Unspecified)
system.caches.L1Cache_Controller.Replacement        35526      0.00%      0.00% (Unspecified)
system.caches.L1Cache_Controller.Writeback_Ack        35525      0.00%      0.00% (Unspecified)
system.caches.L1Cache_Controller.I.Load         14594      0.00%      0.00% (Unspecified)
system.caches.L1Cache_Controller.I.Ifetch         2255      0.00%      0.00% (Unspecified)
system.caches.L1Cache_Controller.I.Store        19189      0.00%      0.00% (Unspecified)
system.caches.L1Cache_Controller.M.Load       8915912      0.00%      0.00% (Unspecified)
system.caches.L1Cache_Controller.M.Ifetch      8213210      0.00%      0.00% (Unspecified)
system.caches.L1Cache_Controller.M.Store     10932016      0.00%      0.00% (Unspecified)
system.caches.L1Cache_Controller.M.Replacement        35526      0.00%      0.00% (Unspecified)
system.caches.L1Cache_Controller.MI.Writeback_Ack        35525      0.00%      0.00% (Unspecified)
system.caches.L1Cache_Controller.IS.Data        16848      0.00%      0.00% (Unspecified)
system.caches.L1Cache_Controller.IM.Data        19189      0.00%      0.00% (Unspecified)
system.caches.Directory_Controller.GETX         36037      0.00%      0.00% (Unspecified)
system.caches.Directory_Controller.PUTX         35525      0.00%      0.00% (Unspecified)
system.caches.Directory_Controller.Memory_Data        36037      0.00%      0.00% (Unspecified)
system.caches.Directory_Controller.Memory_Ack        35525      0.00%      0.00% (Unspecified)
system.caches.Directory_Controller.I.GETX        36037      0.00%      0.00% (Unspecified)
system.caches.Directory_Controller.M.PUTX        35525      0.00%      0.00% (Unspecified)
system.caches.Directory_Controller.IM.Memory_Data        36037      0.00%      0.00% (Unspecified)
system.caches.Directory_Controller.MI.Memory_Ack        35525      0.00%      0.00% (Unspecified)
system.caches.MachineType.Directory.miss_mach_latency_hist_seqr::bucket_size           64                       (Unspecified)
system.caches.MachineType.Directory.miss_mach_latency_hist_seqr::max_bucket          639                       (Unspecified)
system.caches.MachineType.Directory.miss_mach_latency_hist_seqr::samples        36037                       (Unspecified)
system.caches.MachineType.Directory.miss_mach_latency_hist_seqr::mean    83.355634                       (Unspecified)
system.caches.MachineType.Directory.miss_mach_latency_hist_seqr::gmean    78.314350                       (Unspecified)
system.caches.MachineType.Directory.miss_mach_latency_hist_seqr::stdev    37.073404                       (Unspecified)
system.caches.MachineType.Directory.miss_mach_latency_hist_seqr |        9227     25.60%     25.60% |       23633     65.58%     91.18% |        2538      7.04%     98.23% |         258      0.72%     98.94% |         251      0.70%     99.64% |         102      0.28%     99.92% |          11      0.03%     99.95% |          17      0.05%    100.00% |           0      0.00%    100.00% |           0      0.00%    100.00% (Unspecified)
system.caches.MachineType.Directory.miss_mach_latency_hist_seqr::total        36037                       (Unspecified)
system.caches.MachineType.Directory.miss_latency_hist_seqr.issue_to_initial_request::bucket_size            1                       (Unspecified)
system.caches.MachineType.Directory.miss_latency_hist_seqr.issue_to_initial_request::max_bucket            9                       (Unspecified)
system.caches.MachineType.Directory.miss_latency_hist_seqr.issue_to_initial_request::samples            1                       (Unspecified)
system.caches.MachineType.Directory.miss_latency_hist_seqr.issue_to_initial_request::stdev          nan                       (Unspecified)
system.caches.MachineType.Directory.miss_latency_hist_seqr.issue_to_initial_request |           1    100.00%    100.00% |           0      0.00%    100.00% |           0      0.00%    100.00% |           0      0.00%    100.00% |           0      0.00%    100.00% |           0      0.00%    100.00% |           0      0.00%    100.00% |           0      0.00%    100.00% |           0      0.00%    100.00% |           0      0.00%    100.00% (Unspecified)
system.caches.MachineType.Directory.miss_latency_hist_seqr.issue_to_initial_request::total            1                       (Unspecified)
system.caches.MachineType.Directory.miss_latency_hist_seqr.initial_to_forward::bucket_size            1                       (Unspecified)
system.caches.MachineType.Directory.miss_latency_hist_seqr.initial_to_forward::max_bucket            9                       (Unspecified)
system.caches.MachineType.Directory.miss_latency_hist_seqr.initial_to_forward::samples            1                       (Unspecified)
system.caches.MachineType.Directory.miss_latency_hist_seqr.initial_to_forward::stdev          nan                       (Unspecified)
system.caches.MachineType.Directory.miss_latency_hist_seqr.initial_to_forward |           1    100.00%    100.00% |           0      0.00%    100.00% |           0      0.00%    100.00% |           0      0.00%    100.00% |           0      0.00%    100.00% |           0      0.00%    100.00% |           0      0.00%    100.00% |           0      0.00%    100.00% |           0      0.00%    100.00% |           0      0.00%    100.00% (Unspecified)
system.caches.MachineType.Directory.miss_latency_hist_seqr.initial_to_forward::total            1                       (Unspecified)
system.caches.MachineType.Directory.miss_latency_hist_seqr.forward_to_first_response::bucket_size            1                       (Unspecified)
system.caches.MachineType.Directory.miss_latency_hist_seqr.forward_to_first_response::max_bucket            9                       (Unspecified)
system.caches.MachineType.Directory.miss_latency_hist_seqr.forward_to_first_response::samples            1                       (Unspecified)
system.caches.MachineType.Directory.miss_latency_hist_seqr.forward_to_first_response::stdev          nan                       (Unspecified)
system.caches.MachineType.Directory.miss_latency_hist_seqr.forward_to_first_response |           1    100.00%    100.00% |           0      0.00%    100.00% |           0      0.00%    100.00% |           0      0.00%    100.00% |           0      0.00%    100.00% |           0      0.00%    100.00% |           0      0.00%    100.00% |           0      0.00%    100.00% |           0      0.00%    100.00% |           0      0.00%    100.00% (Unspecified)
system.caches.MachineType.Directory.miss_latency_hist_seqr.forward_to_first_response::total            1                       (Unspecified)
system.caches.MachineType.Directory.miss_latency_hist_seqr.first_response_to_completion::bucket_size            8                       (Unspecified)
system.caches.MachineType.Directory.miss_latency_hist_seqr.first_response_to_completion::max_bucket           79                       (Unspecified)
system.caches.MachineType.Directory.miss_latency_hist_seqr.first_response_to_completion::samples            1                       (Unspecified)
system.caches.MachineType.Directory.miss_latency_hist_seqr.first_response_to_completion::mean           73                       (Unspecified)
system.caches.MachineType.Directory.miss_latency_hist_seqr.first_response_to_completion::gmean    73.000000                       (Unspecified)
system.caches.MachineType.Directory.miss_latency_hist_seqr.first_response_to_completion::stdev          nan                       (Unspecified)
system.caches.MachineType.Directory.miss_latency_hist_seqr.first_response_to_completion |           0      0.00%      0.00% |           0      0.00%      0.00% |           0      0.00%      0.00% |           0      0.00%      0.00% |           0      0.00%      0.00% |           0      0.00%      0.00% |           0      0.00%      0.00% |           0      0.00%      0.00% |           0      0.00%      0.00% |           1    100.00%    100.00% (Unspecified)
system.caches.MachineType.Directory.miss_latency_hist_seqr.first_response_to_completion::total            1                       (Unspecified)
system.caches.MachineType.Directory.incomplete_times_seqr        36036                       (Unspecified)
system.caches.RequestType.LD.latency_hist_seqr::bucket_size           64                       (Unspecified)
system.caches.RequestType.LD.latency_hist_seqr::max_bucket          639                       (Unspecified)
system.caches.RequestType.LD.latency_hist_seqr::samples      8930506                       (Unspecified)
system.caches.RequestType.LD.latency_hist_seqr::mean     1.130360                       (Unspecified)
system.caches.RequestType.LD.latency_hist_seqr::gmean     1.007081                       (Unspecified)
system.caches.RequestType.LD.latency_hist_seqr::stdev     3.616450                       (Unspecified)
system.caches.RequestType.LD.latency_hist_seqr |     8921953     99.90%     99.90% |        7084      0.08%     99.98% |        1134      0.01%    100.00% |         150      0.00%    100.00% |         120      0.00%    100.00% |          53      0.00%    100.00% |           7      0.00%    100.00% |           5      0.00%    100.00% |           0      0.00%    100.00% |           0      0.00%    100.00% (Unspecified)
system.caches.RequestType.LD.latency_hist_seqr::total      8930506                       (Unspecified)
system.caches.RequestType.LD.hit_latency_hist_seqr::bucket_size           32                       (Unspecified)
system.caches.RequestType.LD.hit_latency_hist_seqr::max_bucket          319                       (Unspecified)
system.caches.RequestType.LD.hit_latency_hist_seqr::samples      8915912                       (Unspecified)
system.caches.RequestType.LD.hit_latency_hist_seqr::mean     1.000106                       (Unspecified)
system.caches.RequestType.LD.hit_latency_hist_seqr::gmean     1.000010                       (Unspecified)
system.caches.RequestType.LD.hit_latency_hist_seqr::stdev     0.082790                       (Unspecified)
system.caches.RequestType.LD.hit_latency_hist_seqr |     8915901    100.00%    100.00% |           6      0.00%    100.00% |           4      0.00%    100.00% |           0      0.00%    100.00% |           0      0.00%    100.00% |           1      0.00%    100.00% |           0      0.00%    100.00% |           0      0.00%    100.00% |           0      0.00%    100.00% |           0      0.00%    100.00% (Unspecified)
system.caches.RequestType.LD.hit_latency_hist_seqr::total      8915912                       (Unspecified)
system.caches.RequestType.LD.miss_latency_hist_seqr::bucket_size           64                       (Unspecified)
system.caches.RequestType.LD.miss_latency_hist_seqr::max_bucket          639                       (Unspecified)
system.caches.RequestType.LD.miss_latency_hist_seqr::samples        14594                       (Unspecified)
system.caches.RequestType.LD.miss_latency_hist_seqr::mean    80.706455                       (Unspecified)
system.caches.RequestType.LD.miss_latency_hist_seqr::gmean    74.567987                       (Unspecified)
system.caches.RequestType.LD.miss_latency_hist_seqr::stdev    40.699645                       (Unspecified)
system.caches.RequestType.LD.miss_latency_hist_seqr |        6046     41.43%     41.43% |        7080     48.51%     89.94% |        1133      7.76%     97.70% |         150      1.03%     98.73% |         120      0.82%     99.55% |          53      0.36%     99.92% |           7      0.05%     99.97% |           5      0.03%    100.00% |           0      0.00%    100.00% |           0      0.00%    100.00% (Unspecified)
system.caches.RequestType.LD.miss_latency_hist_seqr::total        14594                       (Unspecified)
system.caches.RequestType.ST.latency_hist_seqr::bucket_size           64                       (Unspecified)
system.caches.RequestType.ST.latency_hist_seqr::max_bucket          639                       (Unspecified)
system.caches.RequestType.ST.latency_hist_seqr::samples     10484968                       (Unspecified)
system.caches.RequestType.ST.latency_hist_seqr::mean     1.169070                       (Unspecified)
system.caches.RequestType.ST.latency_hist_seqr::gmean     1.018699                       (Unspecified)
system.caches.RequestType.ST.latency_hist_seqr::stdev     3.892588                       (Unspecified)
system.caches.RequestType.ST.latency_hist_seqr |    10467682     99.84%     99.84% |       15819      0.15%     99.99% |        1210      0.01%    100.00% |          89      0.00%    100.00% |         112      0.00%    100.00% |          43      0.00%    100.00% |           2      0.00%    100.00% |          11      0.00%    100.00% |           0      0.00%    100.00% |           0      0.00%    100.00% (Unspecified)
system.caches.RequestType.ST.latency_hist_seqr::total     10484968                       (Unspecified)
system.caches.RequestType.ST.hit_latency_hist_seqr::bucket_size            8                       (Unspecified)
system.caches.RequestType.ST.hit_latency_hist_seqr::max_bucket           79                       (Unspecified)
system.caches.RequestType.ST.hit_latency_hist_seqr::samples     10466205                       (Unspecified)
system.caches.RequestType.ST.hit_latency_hist_seqr::mean     1.015380                       (Unspecified)
system.caches.RequestType.ST.hit_latency_hist_seqr::gmean     1.010689                       (Unspecified)
system.caches.RequestType.ST.hit_latency_hist_seqr::stdev     0.131765                       (Unspecified)
system.caches.RequestType.ST.hit_latency_hist_seqr |    10466193    100.00%    100.00% |           1      0.00%    100.00% |           2      0.00%    100.00% |           0      0.00%    100.00% |           1      0.00%    100.00% |           4      0.00%    100.00% |           2      0.00%    100.00% |           0      0.00%    100.00% |           2      0.00%    100.00% |           0      0.00%    100.00% (Unspecified)
system.caches.RequestType.ST.hit_latency_hist_seqr::total     10466205                       (Unspecified)
system.caches.RequestType.ST.miss_latency_hist_seqr::bucket_size           64                       (Unspecified)
system.caches.RequestType.ST.miss_latency_hist_seqr::max_bucket          639                       (Unspecified)
system.caches.RequestType.ST.miss_latency_hist_seqr::samples        18763                       (Unspecified)
system.caches.RequestType.ST.miss_latency_hist_seqr::mean    86.898790                       (Unspecified)
system.caches.RequestType.ST.miss_latency_hist_seqr::gmean    83.251277                       (Unspecified)
system.caches.RequestType.ST.miss_latency_hist_seqr::stdev    33.088485                       (Unspecified)
system.caches.RequestType.ST.miss_latency_hist_seqr |        1479      7.88%      7.88% |       15817     84.30%     92.18% |        1210      6.45%     98.63% |          89      0.47%     99.10% |         112      0.60%     99.70% |          43      0.23%     99.93% |           2      0.01%     99.94% |          11      0.06%    100.00% |           0      0.00%    100.00% |           0      0.00%    100.00% (Unspecified)
system.caches.RequestType.ST.miss_latency_hist_seqr::total        18763                       (Unspecified)
system.caches.RequestType.IFETCH.latency_hist_seqr::bucket_size           64                       (Unspecified)
system.caches.RequestType.IFETCH.latency_hist_seqr::max_bucket          639                       (Unspecified)
system.caches.RequestType.IFETCH.latency_hist_seqr::samples      8215464                       (Unspecified)
system.caches.RequestType.IFETCH.latency_hist_seqr::mean     1.019292                       (Unspecified)
system.caches.RequestType.IFETCH.latency_hist_seqr::gmean     1.001153                       (Unspecified)
system.caches.RequestType.IFETCH.latency_hist_seqr::stdev     1.322578                       (Unspecified)
system.caches.RequestType.IFETCH.latency_hist_seqr |     8214725     99.99%     99.99% |         556      0.01%    100.00% |         147      0.00%    100.00% |          16      0.00%    100.00% |          14      0.00%    100.00% |           4      0.00%    100.00% |           1      0.00%    100.00% |           1      0.00%    100.00% |           0      0.00%    100.00% |           0      0.00%    100.00% (Unspecified)
system.caches.RequestType.IFETCH.latency_hist_seqr::total      8215464                       (Unspecified)
system.caches.RequestType.IFETCH.hit_latency_hist_seqr::bucket_size           32                       (Unspecified)
system.caches.RequestType.IFETCH.hit_latency_hist_seqr::max_bucket          319                       (Unspecified)
system.caches.RequestType.IFETCH.hit_latency_hist_seqr::samples      8213210                       (Unspecified)
system.caches.RequestType.IFETCH.hit_latency_hist_seqr::mean     1.000079                       (Unspecified)
system.caches.RequestType.IFETCH.hit_latency_hist_seqr::gmean     1.000007                       (Unspecified)
system.caches.RequestType.IFETCH.hit_latency_hist_seqr::stdev     0.077134                       (Unspecified)
system.caches.RequestType.IFETCH.hit_latency_hist_seqr |     8213202    100.00%    100.00% |           5      0.00%    100.00% |           2      0.00%    100.00% |           0      0.00%    100.00% |           0      0.00%    100.00% |           1      0.00%    100.00% |           0      0.00%    100.00% |           0      0.00%    100.00% |           0      0.00%    100.00% |           0      0.00%    100.00% (Unspecified)
system.caches.RequestType.IFETCH.hit_latency_hist_seqr::total      8213210                       (Unspecified)
system.caches.RequestType.IFETCH.miss_latency_hist_seqr::bucket_size           64                       (Unspecified)
system.caches.RequestType.IFETCH.miss_latency_hist_seqr::max_bucket          639                       (Unspecified)
system.caches.RequestType.IFETCH.miss_latency_hist_seqr::samples         2254                       (Unspecified)
system.caches.RequestType.IFETCH.miss_latency_hist_seqr::mean    71.028394                       (Unspecified)
system.caches.RequestType.IFETCH.miss_latency_hist_seqr::gmean    65.013952                       (Unspecified)
system.caches.RequestType.IFETCH.miss_latency_hist_seqr::stdev    38.104338                       (Unspecified)
system.caches.RequestType.IFETCH.miss_latency_hist_seqr |        1518     67.35%     67.35% |         554     24.58%     91.93% |         146      6.48%     98.40% |          16      0.71%     99.11% |          14      0.62%     99.73% |           4      0.18%     99.91% |           1      0.04%     99.96% |           1      0.04%    100.00% |           0      0.00%    100.00% |           0      0.00%    100.00% (Unspecified)
system.caches.RequestType.IFETCH.miss_latency_hist_seqr::total         2254                       (Unspecified)
system.caches.RequestType.RMW_Read.latency_hist_seqr::bucket_size           64                       (Unspecified)
system.caches.RequestType.RMW_Read.latency_hist_seqr::max_bucket          639                       (Unspecified)
system.caches.RequestType.RMW_Read.latency_hist_seqr::samples       466237                       (Unspecified)
system.caches.RequestType.RMW_Read.latency_hist_seqr::mean     1.350997                       (Unspecified)
system.caches.RequestType.RMW_Read.latency_hist_seqr::gmean     1.215248                       (Unspecified)
system.caches.RequestType.RMW_Read.latency_hist_seqr::stdev     2.863975                       (Unspecified)
system.caches.RequestType.RMW_Read.latency_hist_seqr |      465995     99.95%     99.95% |         182      0.04%     99.99% |          49      0.01%    100.00% |           3      0.00%    100.00% |           5      0.00%    100.00% |           2      0.00%    100.00% |           1      0.00%    100.00% |           0      0.00%    100.00% |           0      0.00%    100.00% |           0      0.00%    100.00% (Unspecified)
system.caches.RequestType.RMW_Read.latency_hist_seqr::total       466237                       (Unspecified)
system.caches.RequestType.RMW_Read.hit_latency_hist_seqr::bucket_size            8                       (Unspecified)
system.caches.RequestType.RMW_Read.hit_latency_hist_seqr::max_bucket           79                       (Unspecified)
system.caches.RequestType.RMW_Read.hit_latency_hist_seqr::samples       465811                       (Unspecified)
system.caches.RequestType.RMW_Read.hit_latency_hist_seqr::mean     1.276071                       (Unspecified)
system.caches.RequestType.RMW_Read.hit_latency_hist_seqr::gmean     1.210659                       (Unspecified)
system.caches.RequestType.RMW_Read.hit_latency_hist_seqr::stdev     0.460927                       (Unspecified)
system.caches.RequestType.RMW_Read.hit_latency_hist_seqr |      465807    100.00%    100.00% |           0      0.00%    100.00% |           0      0.00%    100.00% |           1      0.00%    100.00% |           1      0.00%    100.00% |           1      0.00%    100.00% |           1      0.00%    100.00% |           0      0.00%    100.00% |           0      0.00%    100.00% |           0      0.00%    100.00% (Unspecified)
system.caches.RequestType.RMW_Read.hit_latency_hist_seqr::total       465811                       (Unspecified)
system.caches.RequestType.RMW_Read.miss_latency_hist_seqr::bucket_size           64                       (Unspecified)
system.caches.RequestType.RMW_Read.miss_latency_hist_seqr::max_bucket          639                       (Unspecified)
system.caches.RequestType.RMW_Read.miss_latency_hist_seqr::samples          426                       (Unspecified)
system.caches.RequestType.RMW_Read.miss_latency_hist_seqr::mean    83.279343                       (Unspecified)
system.caches.RequestType.RMW_Read.miss_latency_hist_seqr::gmean    76.120310                       (Unspecified)
system.caches.RequestType.RMW_Read.miss_latency_hist_seqr::stdev    45.068151                       (Unspecified)
system.caches.RequestType.RMW_Read.miss_latency_hist_seqr |         184     43.19%     43.19% |         182     42.72%     85.92% |          49     11.50%     97.42% |           3      0.70%     98.12% |           5      1.17%     99.30% |           2      0.47%     99.77% |           1      0.23%    100.00% |           0      0.00%    100.00% |           0      0.00%    100.00% |           0      0.00%    100.00% (Unspecified)
system.caches.RequestType.RMW_Read.miss_latency_hist_seqr::total          426                       (Unspecified)
system.caches.RequestTypeMachineType.LD.Directory.miss_type_mach_latency_hist_seqr::bucket_size           64                       (Unspecified)
system.caches.RequestTypeMachineType.LD.Directory.miss_type_mach_latency_hist_seqr::max_bucket          639                       (Unspecified)
system.caches.RequestTypeMachineType.LD.Directory.miss_type_mach_latency_hist_seqr::samples        14594                       (Unspecified)
system.caches.RequestTypeMachineType.LD.Directory.miss_type_mach_latency_hist_seqr::mean    80.706455                       (Unspecified)
system.caches.RequestTypeMachineType.LD.Directory.miss_type_mach_latency_hist_seqr::gmean    74.567987                       (Unspecified)
system.caches.RequestTypeMachineType.LD.Directory.miss_type_mach_latency_hist_seqr::stdev    40.699645                       (Unspecified)
system.caches.RequestTypeMachineType.LD.Directory.miss_type_mach_latency_hist_seqr |        6046     41.43%     41.43% |        7080     48.51%     89.94% |        1133      7.76%     97.70% |         150      1.03%     98.73% |         120      0.82%     99.55% |          53      0.36%     99.92% |           7      0.05%     99.97% |           5      0.03%    100.00% |           0      0.00%    100.00% |           0      0.00%    100.00% (Unspecified)
system.caches.RequestTypeMachineType.LD.Directory.miss_type_mach_latency_hist_seqr::total        14594                       (Unspecified)
system.caches.RequestTypeMachineType.ST.Directory.miss_type_mach_latency_hist_seqr::bucket_size           64                       (Unspecified)
system.caches.RequestTypeMachineType.ST.Directory.miss_type_mach_latency_hist_seqr::max_bucket          639                       (Unspecified)
system.caches.RequestTypeMachineType.ST.Directory.miss_type_mach_latency_hist_seqr::samples        18763                       (Unspecified)
system.caches.RequestTypeMachineType.ST.Directory.miss_type_mach_latency_hist_seqr::mean    86.898790                       (Unspecified)
system.caches.RequestTypeMachineType.ST.Directory.miss_type_mach_latency_hist_seqr::gmean    83.251277                       (Unspecified)
system.caches.RequestTypeMachineType.ST.Directory.miss_type_mach_latency_hist_seqr::stdev    33.088485                       (Unspecified)
system.caches.RequestTypeMachineType.ST.Directory.miss_type_mach_latency_hist_seqr |        1479      7.88%      7.88% |       15817     84.30%     92.18% |        1210      6.45%     98.63% |          89      0.47%     99.10% |         112      0.60%     99.70% |          43      0.23%     99.93% |           2      0.01%     99.94% |          11      0.06%    100.00% |           0      0.00%    100.00% |           0      0.00%    100.00% (Unspecified)
system.caches.RequestTypeMachineType.ST.Directory.miss_type_mach_latency_hist_seqr::total        18763                       (Unspecified)
system.caches.RequestTypeMachineType.IFETCH.Directory.miss_type_mach_latency_hist_seqr::bucket_size           64                       (Unspecified)
system.caches.RequestTypeMachineType.IFETCH.Directory.miss_type_mach_latency_hist_seqr::max_bucket          639                       (Unspecified)
system.caches.RequestTypeMachineType.IFETCH.Directory.miss_type_mach_latency_hist_seqr::samples         2254                       (Unspecified)
system.caches.RequestTypeMachineType.IFETCH.Directory.miss_type_mach_latency_hist_seqr::mean    71.028394                       (Unspecified)
system.caches.RequestTypeMachineType.IFETCH.Directory.miss_type_mach_latency_hist_seqr::gmean    65.013952                       (Unspecified)
system.caches.RequestTypeMachineType.IFETCH.Directory.miss_type_mach_latency_hist_seqr::stdev    38.104338                       (Unspecified)
system.caches.RequestTypeMachineType.IFETCH.Directory.miss_type_mach_latency_hist_seqr |        1518     67.35%     67.35% |         554     24.58%     91.93% |         146      6.48%     98.40% |          16      0.71%     99.11% |          14      0.62%     99.73% |           4      0.18%     99.91% |           1      0.04%     99.96% |           1      0.04%    100.00% |           0      0.00%    100.00% |           0      0.00%    100.00% (Unspecified)
system.caches.RequestTypeMachineType.IFETCH.Directory.miss_type_mach_latency_hist_seqr::total         2254                       (Unspecified)
system.caches.RequestTypeMachineType.RMW_Read.Directory.miss_type_mach_latency_hist_seqr::bucket_size           64                       (Unspecified)
system.caches.RequestTypeMachineType.RMW_Read.Directory.miss_type_mach_latency_hist_seqr::max_bucket          639                       (Unspecified)
system.caches.RequestTypeMachineType.RMW_Read.Directory.miss_type_mach_latency_hist_seqr::samples          426                       (Unspecified)
system.caches.RequestTypeMachineType.RMW_Read.Directory.miss_type_mach_latency_hist_seqr::mean    83.279343                       (Unspecified)
system.caches.RequestTypeMachineType.RMW_Read.Directory.miss_type_mach_latency_hist_seqr::gmean    76.120310                       (Unspecified)
system.caches.RequestTypeMachineType.RMW_Read.Directory.miss_type_mach_latency_hist_seqr::stdev    45.068151                       (Unspecified)
system.caches.RequestTypeMachineType.RMW_Read.Directory.miss_type_mach_latency_hist_seqr |         184     43.19%     43.19% |         182     42.72%     85.92% |          49     11.50%     97.42% |           3      0.70%     98.12% |           5      1.17%     99.30% |           2      0.47%     99.77% |           1      0.23%    100.00% |           0      0.00%    100.00% |           0      0.00%    100.00% |           0      0.00%    100.00% (Unspecified)
system.caches.RequestTypeMachineType.RMW_Read.Directory.miss_type_mach_latency_hist_seqr::total          426                       (Unspecified)
system.caches.controllers0.delayHistogram::samples        71562                       # delay_histogram (Unspecified)
system.caches.controllers0.delayHistogram::mean     0.028255                       # delay_histogram (Unspecified)
system.caches.controllers0.delayHistogram::stdev     0.404881                       # delay_histogram (Unspecified)
system.caches.controllers0.delayHistogram::0-1        71147     99.42%     99.42% # delay_histogram (Unspecified)
system.caches.controllers0.delayHistogram::2-3           97      0.14%     99.56% # delay_histogram (Unspecified)
system.caches.controllers0.delayHistogram::4-5          124      0.17%     99.73% # delay_histogram (Unspecified)
system.caches.controllers0.delayHistogram::6-7          114      0.16%     99.89% # delay_histogram (Unspecified)
system.caches.controllers0.delayHistogram::8-9           79      0.11%    100.00% # delay_histogram (Unspecified)
system.caches.controllers0.delayHistogram::16-17            1      0.00%    100.00% # delay_histogram (Unspecified)
system.caches.controllers0.delayHistogram::total        71562                       # delay_histogram (Unspecified)
system.caches.controllers0.cacheMemory.m_demand_hits     28061138                       # Number of cache demand hits (Unspecified)
system.caches.controllers0.cacheMemory.m_demand_misses        36038                       # Number of cache demand misses (Unspecified)
system.caches.controllers0.cacheMemory.m_demand_accesses     28097176                       # Number of cache demand accesses (Unspecified)
system.caches.controllers0.forwardToCache.m_buf_msgs     0.000694                       # Average number of messages in buffer (Unspecified)
system.caches.controllers0.forwardToCache.m_stall_time  5000.364481                       # Average number of cycles messages are stalled in this MB (Unspecified)
system.caches.controllers0.mandatoryQueue.m_buf_msgs     0.548696                       # Average number of messages in buffer (Unspecified)
system.caches.controllers0.mandatoryQueue.m_stall_time  1000.104330                       # Average number of cycles messages are stalled in this MB (Unspecified)
system.caches.controllers0.power_state.pwrStateResidencyTicks::UNDEFINED  51212600000                       # Cumulative time (in ticks) in various power states (Tick)
system.caches.controllers0.requestFromCache.m_buf_msgs     0.002795                       # Average number of messages in buffer (Unspecified)
system.caches.controllers0.requestFromCache.m_stall_time  1999.999883                       # Average number of cycles messages are stalled in this MB (Unspecified)
system.caches.controllers0.responseToCache.m_buf_msgs     0.000704                       # Average number of messages in buffer (Unspecified)
system.caches.controllers0.responseToCache.m_stall_time  5000.037569                       # Average number of cycles messages are stalled in this MB (Unspecified)
system.caches.controllers1.forwardFromDir.m_buf_msgs     0.000694                       # Average number of messages in buffer (Unspecified)
system.caches.controllers1.forwardFromDir.m_stall_time   999.812878                       # Average number of cycles messages are stalled in this MB (Unspecified)
system.caches.controllers1.power_state.pwrStateResidencyTicks::UNDEFINED  51212600000                       # Cumulative time (in ticks) in various power states (Tick)
system.caches.controllers1.requestToDir.m_buf_msgs     0.001397                       # Average number of messages in buffer (Unspecified)
system.caches.controllers1.requestToDir.m_stall_time 10007.596549                       # Average number of cycles messages are stalled in this MB (Unspecified)
system.caches.controllers1.requestToMemory.m_buf_msgs     0.001398                       # Average number of messages in buffer (Unspecified)
system.caches.controllers1.requestToMemory.m_stall_time  1000.003905                       # Average number of cycles messages are stalled in this MB (Unspecified)
system.caches.controllers1.responseFromDir.m_buf_msgs     0.000704                       # Average number of messages in buffer (Unspecified)
system.caches.controllers1.responseFromDir.m_stall_time   999.998653                       # Average number of cycles messages are stalled in this MB (Unspecified)
system.caches.controllers1.responseFromMemory.m_buf_msgs     0.001756                       # Average number of messages in buffer (Unspecified)
system.caches.controllers1.responseFromMemory.m_stall_time   999.998672                       # Average number of cycles messages are stalled in this MB (Unspecified)
system.caches.network.msg_count.Control         72074                       (Unspecified)
system.caches.network.msg_byte.Control         576592                       (Unspecified)
system.caches.network.msg_count.Data            71051                       (Unspecified)
system.caches.network.msg_byte.Data           5115672                       (Unspecified)
system.caches.network.msg_count.Response_Data        72074                       (Unspecified)
system.caches.network.msg_byte.Response_Data      5189328                       (Unspecified)
system.caches.network.msg_count.Writeback_Control        71050                       (Unspecified)
system.caches.network.msg_byte.Writeback_Control       568400                       (Unspecified)
system.caches.network.int_link_buffers2.m_buf_msgs     0.001397                       # Average number of messages in buffer (Unspecified)
system.caches.network.int_link_buffers2.m_stall_time  8007.597134                       # Average number of cycles messages are stalled in this MB (Unspecified)
system.caches.network.int_link_buffers8.m_buf_msgs     0.000694                       # Average number of messages in buffer (Unspecified)
system.caches.network.int_link_buffers8.m_stall_time  3000.738998                       # Average number of cycles messages are stalled in this MB (Unspecified)
system.caches.network.int_link_buffers9.m_buf_msgs     0.000704                       # Average number of messages in buffer (Unspecified)
system.caches.network.int_link_buffers9.m_stall_time  3000.040537                       # Average number of cycles messages are stalled in this MB (Unspecified)
system.caches.network.power_state.pwrStateResidencyTicks::UNDEFINED  51212600000                       # Cumulative time (in ticks) in various power states (Tick)
system.caches.network.routers0.percent_links_utilized     0.349339                       (Unspecified)
system.caches.network.routers0.msg_count.Control::2        36037                       (Unspecified)
system.caches.network.routers0.msg_bytes.Control::2       288296                       (Unspecified)
system.caches.network.routers0.msg_count.Data::2        35526                       (Unspecified)
system.caches.network.routers0.msg_bytes.Data::2      2557872                       (Unspecified)
system.caches.network.routers0.msg_count.Response_Data::4        36037                       (Unspecified)
system.caches.network.routers0.msg_bytes.Response_Data::4      2594664                       (Unspecified)
system.caches.network.routers0.msg_count.Writeback_Control::3        35525                       (Unspecified)
system.caches.network.routers0.msg_bytes.Writeback_Control::3       284200                       (Unspecified)
system.caches.network.routers0.port_buffers3.m_buf_msgs     0.000694                       # Average number of messages in buffer (Unspecified)
system.caches.network.routers0.port_buffers3.m_stall_time  4000.551759                       # Average number of cycles messages are stalled in this MB (Unspecified)
system.caches.network.routers0.port_buffers4.m_buf_msgs     0.000704                       # Average number of messages in buffer (Unspecified)
system.caches.network.routers0.port_buffers4.m_stall_time  4000.039072                       # Average number of cycles messages are stalled in this MB (Unspecified)
system.caches.network.routers0.port_buffers7.m_buf_msgs     0.004553                       # Average number of messages in buffer (Unspecified)
system.caches.network.routers0.port_buffers7.m_stall_time  7007.597369                       # Average number of cycles messages are stalled in this MB (Unspecified)
system.caches.network.routers0.power_state.pwrStateResidencyTicks::UNDEFINED  51212600000                       # Cumulative time (in ticks) in various power states (Tick)
system.caches.network.routers0.throttle00.link_utilization     0.351337                       (Unspecified)
system.caches.network.routers0.throttle00.msg_count.Response_Data::4        36037                       (Unspecified)
system.caches.network.routers0.throttle00.msg_bytes.Response_Data::4      2594664                       (Unspecified)
system.caches.network.routers0.throttle00.msg_count.Writeback_Control::3        35525                       (Unspecified)
system.caches.network.routers0.throttle00.msg_bytes.Writeback_Control::3       284200                       (Unspecified)
system.caches.network.routers0.throttle01.link_utilization     0.347340                       (Unspecified)
system.caches.network.routers0.throttle01.msg_count.Control::2        36037                       (Unspecified)
system.caches.network.routers0.throttle01.msg_bytes.Control::2       288296                       (Unspecified)
system.caches.network.routers0.throttle01.msg_count.Data::2        35526                       (Unspecified)
system.caches.network.routers0.throttle01.msg_bytes.Data::2      2557872                       (Unspecified)
system.caches.network.routers1.percent_links_utilized     0.349338                       (Unspecified)
system.caches.network.routers1.msg_count.Control::2        36037                       (Unspecified)
system.caches.network.routers1.msg_bytes.Control::2       288296                       (Unspecified)
system.caches.network.routers1.msg_count.Data::2        35525                       (Unspecified)
system.caches.network.routers1.msg_bytes.Data::2      2557800                       (Unspecified)
system.caches.network.routers1.msg_count.Response_Data::4        36037                       (Unspecified)
system.caches.network.routers1.msg_bytes.Response_Data::4      2594664                       (Unspecified)
system.caches.network.routers1.msg_count.Writeback_Control::3        35525                       (Unspecified)
system.caches.network.routers1.msg_bytes.Writeback_Control::3       284200                       (Unspecified)
system.caches.network.routers1.port_buffers2.m_buf_msgs     0.001397                       # Average number of messages in buffer (Unspecified)
system.caches.network.routers1.port_buffers2.m_stall_time  9007.596861                       # Average number of cycles messages are stalled in this MB (Unspecified)
system.caches.network.routers1.port_buffers6.m_buf_msgs     0.000713                       # Average number of messages in buffer (Unspecified)
system.caches.network.routers1.port_buffers6.m_stall_time  2000.926198                       # Average number of cycles messages are stalled in this MB (Unspecified)
system.caches.network.routers1.port_buffers7.m_buf_msgs     0.000704                       # Average number of messages in buffer (Unspecified)
system.caches.network.routers1.port_buffers7.m_stall_time  2000.041962                       # Average number of cycles messages are stalled in this MB (Unspecified)
system.caches.network.routers1.power_state.pwrStateResidencyTicks::UNDEFINED  51212600000                       # Cumulative time (in ticks) in various power states (Tick)
system.caches.network.routers1.throttle00.link_utilization     0.347338                       (Unspecified)
system.caches.network.routers1.throttle00.msg_count.Control::2        36037                       (Unspecified)
system.caches.network.routers1.throttle00.msg_bytes.Control::2       288296                       (Unspecified)
system.caches.network.routers1.throttle00.msg_count.Data::2        35525                       (Unspecified)
system.caches.network.routers1.throttle00.msg_bytes.Data::2      2557800                       (Unspecified)
system.caches.network.routers1.throttle01.link_utilization     0.351337                       (Unspecified)
system.caches.network.routers1.throttle01.msg_count.Response_Data::4        36037                       (Unspecified)
system.caches.network.routers1.throttle01.msg_bytes.Response_Data::4      2594664                       (Unspecified)
system.caches.network.routers1.throttle01.msg_count.Writeback_Control::3        35525                       (Unspecified)
system.caches.network.routers1.throttle01.msg_bytes.Writeback_Control::3       284200                       (Unspecified)
system.caches.power_state.pwrStateResidencyTicks::UNDEFINED  51212600000                       # Cumulative time (in ticks) in various power states (Tick)
system.caches.sequencers.power_state.pwrStateResidencyTicks::UNDEFINED  51212600000                       # Cumulative time (in ticks) in various power states (Tick)
system.caches.sys_port_proxy.power_state.pwrStateResidencyTicks::UNDEFINED  51212600000                       # Cumulative time (in ticks) in various power states (Tick)
system.clk_domain.clock                          1000                       # Clock period in ticks (Tick)
system.clk_domain.voltage_domain.voltage            1                       # Voltage in Volts (Volt)
system.cpu.numCycles                         51212601                       # Number of cpu cycles simulated (Cycle)
system.cpu.numWorkItemsStarted                      0                       # Number of work items this cpu started (Count)
system.cpu.numWorkItemsCompleted                    0                       # Number of work items this cpu completed (Count)
system.cpu.instsAdded                        95176248                       # Number of instructions added to the IQ (excludes non-spec) (Count)
system.cpu.nonSpecInstsAdded                   917760                       # Number of non-speculative instructions added to the IQ (Count)
system.cpu.instsIssued                       92148551                       # Number of instructions issued (Count)
system.cpu.squashedInstsIssued                   2215                       # Number of squashed instructions issued (Count)
system.cpu.squashedInstsExamined             12892033                       # Number of squashed instructions iterated over during squash; mainly for profiling (Count)
system.cpu.squashedOperandsExamined          15336054                       # Number of squashed operands that are examined and possibly removed from graph (Count)
system.cpu.squashedNonSpecRemoved                 120                       # Number of squashed non-spec instructions that were removed (Count)
system.cpu.numIssuedDist::samples            51150375                       # Number of insts issued each cycle (Count)
system.cpu.numIssuedDist::mean               1.801522                       # Number of insts issued each cycle (Count)
system.cpu.numIssuedDist::stdev              2.044284                       # Number of insts issued each cycle (Count)
system.cpu.numIssuedDist::underflows                0      0.00%      0.00% # Number of insts issued each cycle (Count)
system.cpu.numIssuedDist::0                  20890278     40.84%     40.84% # Number of insts issued each cycle (Count)
system.cpu.numIssuedDist::1                   8349481     16.32%     57.16% # Number of insts issued each cycle (Count)
system.cpu.numIssuedDist::2                   5256612     10.28%     67.44% # Number of insts issued each cycle (Count)
system.cpu.numIssuedDist::3                   5689134     11.12%     78.56% # Number of insts issued each cycle (Count)
system.cpu.numIssuedDist::4                   3407266      6.66%     85.22% # Number of insts issued each cycle (Count)
system.cpu.numIssuedDist::5                   3999633      7.82%     93.04% # Number of insts issued each cycle (Count)
system.cpu.numIssuedDist::6                   2531529      4.95%     97.99% # Number of insts issued each cycle (Count)
system.cpu.numIssuedDist::7                    809495      1.58%     99.58% # Number of insts issued each cycle (Count)
system.cpu.numIssuedDist::8                    216947      0.42%    100.00% # Number of insts issued each cycle (Count)
system.cpu.numIssuedDist::overflows                 0      0.00%    100.00% # Number of insts issued each cycle (Count)
system.cpu.numIssuedDist::min_value                 0                       # Number of insts issued each cycle (Count)
system.cpu.numIssuedDist::max_value                 8                       # Number of insts issued each cycle (Count)
system.cpu.numIssuedDist::total              51150375                       # Number of insts issued each cycle (Count)
system.cpu.statFuBusy::No_OpClass                   0      0.00%      0.00% # attempts to use FU when none available (Count)
system.cpu.statFuBusy::IntAlu                   62683     11.01%     11.01% # attempts to use FU when none available (Count)
system.cpu.statFuBusy::IntMult                      0      0.00%     11.01% # attempts to use FU when none available (Count)
system.cpu.statFuBusy::IntDiv                       0      0.00%     11.01% # attempts to use FU when none available (Count)
system.cpu.statFuBusy::FloatAdd                     0      0.00%     11.01% # attempts to use FU when none available (Count)
system.cpu.statFuBusy::FloatCmp                     0      0.00%     11.01% # attempts to use FU when none available (Count)
system.cpu.statFuBusy::FloatCvt                     0      0.00%     11.01% # attempts to use FU when none available (Count)
system.cpu.statFuBusy::FloatMult                    0      0.00%     11.01% # attempts to use FU when none available (Count)
system.cpu.statFuBusy::FloatMultAcc                 0      0.00%     11.01% # attempts to use FU when none available (Count)
system.cpu.statFuBusy::FloatDiv                     0      0.00%     11.01% # attempts to use FU when none available (Count)
system.cpu.statFuBusy::FloatMisc                    0      0.00%     11.01% # attempts to use FU when none available (Count)
system.cpu.statFuBusy::FloatSqrt                    0      0.00%     11.01% # attempts to use FU when none available (Count)
system.cpu.statFuBusy::SimdAdd                      2      0.00%     11.01% # attempts to use FU when none available (Count)
system.cpu.statFuBusy::SimdAddAcc                   0      0.00%     11.01% # attempts to use FU when none available (Count)
system.cpu.statFuBusy::SimdAlu                     52      0.01%     11.02% # attempts to use FU when none available (Count)
system.cpu.statFuBusy::SimdCmp                      0      0.00%     11.02% # attempts to use FU when none available (Count)
system.cpu.statFuBusy::SimdCvt                    860      0.15%     11.17% # attempts to use FU when none available (Count)
system.cpu.statFuBusy::SimdMisc                     4      0.00%     11.18% # attempts to use FU when none available (Count)
system.cpu.statFuBusy::SimdMult                     0      0.00%     11.18% # attempts to use FU when none available (Count)
system.cpu.statFuBusy::SimdMultAcc                  0      0.00%     11.18% # attempts to use FU when none available (Count)
system.cpu.statFuBusy::SimdShift                   49      0.01%     11.18% # attempts to use FU when none available (Count)
system.cpu.statFuBusy::SimdShiftAcc                 0      0.00%     11.18% # attempts to use FU when none available (Count)
system.cpu.statFuBusy::SimdDiv                      0      0.00%     11.18% # attempts to use FU when none available (Count)
system.cpu.statFuBusy::SimdSqrt                     0      0.00%     11.18% # attempts to use FU when none available (Count)
system.cpu.statFuBusy::SimdFloatAdd                 0      0.00%     11.18% # attempts to use FU when none available (Count)
system.cpu.statFuBusy::SimdFloatAlu                 0      0.00%     11.18% # attempts to use FU when none available (Count)
system.cpu.statFuBusy::SimdFloatCmp                 0      0.00%     11.18% # attempts to use FU when none available (Count)
system.cpu.statFuBusy::SimdFloatCvt                 0      0.00%     11.18% # attempts to use FU when none available (Count)
system.cpu.statFuBusy::SimdFloatDiv                 0      0.00%     11.18% # attempts to use FU when none available (Count)
system.cpu.statFuBusy::SimdFloatMisc                0      0.00%     11.18% # attempts to use FU when none available (Count)
system.cpu.statFuBusy::SimdFloatMult                0      0.00%     11.18% # attempts to use FU when none available (Count)
system.cpu.statFuBusy::SimdFloatMultAcc             0      0.00%     11.18% # attempts to use FU when none available (Count)
system.cpu.statFuBusy::SimdFloatSqrt                0      0.00%     11.18% # attempts to use FU when none available (Count)
system.cpu.statFuBusy::SimdReduceAdd                0      0.00%     11.18% # attempts to use FU when none available (Count)
system.cpu.statFuBusy::SimdReduceAlu                0      0.00%     11.18% # attempts to use FU when none available (Count)
system.cpu.statFuBusy::SimdReduceCmp                0      0.00%     11.18% # attempts to use FU when none available (Count)
system.cpu.statFuBusy::SimdFloatReduceAdd            0      0.00%     11.18% # attempts to use FU when none available (Count)
system.cpu.statFuBusy::SimdFloatReduceCmp            0      0.00%     11.18% # attempts to use FU when none available (Count)
system.cpu.statFuBusy::SimdAes                      0      0.00%     11.18% # attempts to use FU when none available (Count)
system.cpu.statFuBusy::SimdAesMix                   0      0.00%     11.18% # attempts to use FU when none available (Count)
system.cpu.statFuBusy::SimdSha1Hash                 0      0.00%     11.18% # attempts to use FU when none available (Count)
system.cpu.statFuBusy::SimdSha1Hash2                0      0.00%     11.18% # attempts to use FU when none available (Count)
system.cpu.statFuBusy::SimdSha256Hash               0      0.00%     11.18% # attempts to use FU when none available (Count)
system.cpu.statFuBusy::SimdSha256Hash2              0      0.00%     11.18% # attempts to use FU when none available (Count)
system.cpu.statFuBusy::SimdShaSigma2                0      0.00%     11.18% # attempts to use FU when none available (Count)
system.cpu.statFuBusy::SimdShaSigma3                0      0.00%     11.18% # attempts to use FU when none available (Count)
system.cpu.statFuBusy::SimdPredAlu                  0      0.00%     11.18% # attempts to use FU when none available (Count)
system.cpu.statFuBusy::MemRead                 498291     87.56%     98.74% # attempts to use FU when none available (Count)
system.cpu.statFuBusy::MemWrite                  6780      1.19%     99.93% # attempts to use FU when none available (Count)
system.cpu.statFuBusy::FloatMemRead               212      0.04%     99.97% # attempts to use FU when none available (Count)
system.cpu.statFuBusy::FloatMemWrite              177      0.03%    100.00% # attempts to use FU when none available (Count)
system.cpu.statFuBusy::IprAccess                    0      0.00%    100.00% # attempts to use FU when none available (Count)
system.cpu.statFuBusy::InstPrefetch                 0      0.00%    100.00% # attempts to use FU when none available (Count)
system.cpu.statIssuedInstType_0::No_OpClass      1593724      1.73%      1.73% # Number of instructions issued per FU type, per thread (Count)
system.cpu.statIssuedInstType_0::IntAlu      53665042     58.24%     59.97% # Number of instructions issued per FU type, per thread (Count)
system.cpu.statIssuedInstType_0::IntMult         1913      0.00%     59.97% # Number of instructions issued per FU type, per thread (Count)
system.cpu.statIssuedInstType_0::IntDiv         37226      0.04%     60.01% # Number of instructions issued per FU type, per thread (Count)
system.cpu.statIssuedInstType_0::FloatAdd      1842227      2.00%     62.01% # Number of instructions issued per FU type, per thread (Count)
system.cpu.statIssuedInstType_0::FloatCmp            0      0.00%     62.01% # Number of instructions issued per FU type, per thread (Count)
system.cpu.statIssuedInstType_0::FloatCvt       262384      0.28%     62.29% # Number of instructions issued per FU type, per thread (Count)
system.cpu.statIssuedInstType_0::FloatMult       262144      0.28%     62.58% # Number of instructions issued per FU type, per thread (Count)
system.cpu.statIssuedInstType_0::FloatMultAcc            0      0.00%     62.58% # Number of instructions issued per FU type, per thread (Count)
system.cpu.statIssuedInstType_0::FloatDiv            0      0.00%     62.58% # Number of instructions issued per FU type, per thread (Count)
system.cpu.statIssuedInstType_0::FloatMisc            0      0.00%     62.58% # Number of instructions issued per FU type, per thread (Count)
system.cpu.statIssuedInstType_0::FloatSqrt            0      0.00%     62.58% # Number of instructions issued per FU type, per thread (Count)
system.cpu.statIssuedInstType_0::SimdAdd         7040      0.01%     62.59% # Number of instructions issued per FU type, per thread (Count)
system.cpu.statIssuedInstType_0::SimdAddAcc            0      0.00%     62.59% # Number of instructions issued per FU type, per thread (Count)
system.cpu.statIssuedInstType_0::SimdAlu       275337      0.30%     62.88% # Number of instructions issued per FU type, per thread (Count)
system.cpu.statIssuedInstType_0::SimdCmp            8      0.00%     62.88% # Number of instructions issued per FU type, per thread (Count)
system.cpu.statIssuedInstType_0::SimdCvt        14705      0.02%     62.90% # Number of instructions issued per FU type, per thread (Count)
system.cpu.statIssuedInstType_0::SimdMisc       406515      0.44%     63.34% # Number of instructions issued per FU type, per thread (Count)
system.cpu.statIssuedInstType_0::SimdMult            0      0.00%     63.34% # Number of instructions issued per FU type, per thread (Count)
system.cpu.statIssuedInstType_0::SimdMultAcc            0      0.00%     63.34% # Number of instructions issued per FU type, per thread (Count)
system.cpu.statIssuedInstType_0::SimdShift         1095      0.00%     63.34% # Number of instructions issued per FU type, per thread (Count)
system.cpu.statIssuedInstType_0::SimdShiftAcc            0      0.00%     63.34% # Number of instructions issued per FU type, per thread (Count)
system.cpu.statIssuedInstType_0::SimdDiv            0      0.00%     63.34% # Number of instructions issued per FU type, per thread (Count)
system.cpu.statIssuedInstType_0::SimdSqrt            0      0.00%     63.34% # Number of instructions issued per FU type, per thread (Count)
system.cpu.statIssuedInstType_0::SimdFloatAdd       524289      0.57%     63.91% # Number of instructions issued per FU type, per thread (Count)
system.cpu.statIssuedInstType_0::SimdFloatAlu            0      0.00%     63.91% # Number of instructions issued per FU type, per thread (Count)
system.cpu.statIssuedInstType_0::SimdFloatCmp            0      0.00%     63.91% # Number of instructions issued per FU type, per thread (Count)
system.cpu.statIssuedInstType_0::SimdFloatCvt       393262      0.43%     64.34% # Number of instructions issued per FU type, per thread (Count)
system.cpu.statIssuedInstType_0::SimdFloatDiv       131079      0.14%     64.48% # Number of instructions issued per FU type, per thread (Count)
system.cpu.statIssuedInstType_0::SimdFloatMisc            0      0.00%     64.48% # Number of instructions issued per FU type, per thread (Count)
system.cpu.statIssuedInstType_0::SimdFloatMult       393216      0.43%     64.91% # Number of instructions issued per FU type, per thread (Count)
system.cpu.statIssuedInstType_0::SimdFloatMultAcc            0      0.00%     64.91% # Number of instructions issued per FU type, per thread (Count)
system.cpu.statIssuedInstType_0::SimdFloatSqrt            0      0.00%     64.91% # Number of instructions issued per FU type, per thread (Count)
system.cpu.statIssuedInstType_0::SimdReduceAdd            0      0.00%     64.91% # Number of instructions issued per FU type, per thread (Count)
system.cpu.statIssuedInstType_0::SimdReduceAlu            0      0.00%     64.91% # Number of instructions issued per FU type, per thread (Count)
system.cpu.statIssuedInstType_0::SimdReduceCmp            0      0.00%     64.91% # Number of instructions issued per FU type, per thread (Count)
system.cpu.statIssuedInstType_0::SimdFloatReduceAdd            0      0.00%     64.91% # Number of instructions issued per FU type, per thread (Count)
system.cpu.statIssuedInstType_0::SimdFloatReduceCmp            0      0.00%     64.91% # Number of instructions issued per FU type, per thread (Count)
system.cpu.statIssuedInstType_0::SimdAes            0      0.00%     64.91% # Number of instructions issued per FU type, per thread (Count)
system.cpu.statIssuedInstType_0::SimdAesMix            0      0.00%     64.91% # Number of instructions issued per FU type, per thread (Count)
system.cpu.statIssuedInstType_0::SimdSha1Hash            0      0.00%     64.91% # Number of instructions issued per FU type, per thread (Count)
system.cpu.statIssuedInstType_0::SimdSha1Hash2            0      0.00%     64.91% # Number of instructions issued per FU type, per thread (Count)
system.cpu.statIssuedInstType_0::SimdSha256Hash            0      0.00%     64.91% # Number of instructions issued per FU type, per thread (Count)
system.cpu.statIssuedInstType_0::SimdSha256Hash2            0      0.00%     64.91% # Number of instructions issued per FU type, per thread (Count)
system.cpu.statIssuedInstType_0::SimdShaSigma2            0      0.00%     64.91% # Number of instructions issued per FU type, per thread (Count)
system.cpu.statIssuedInstType_0::SimdShaSigma3            0      0.00%     64.91% # Number of instructions issued per FU type, per thread (Count)
system.cpu.statIssuedInstType_0::SimdPredAlu            0      0.00%     64.91% # Number of instructions issued per FU type, per thread (Count)
system.cpu.statIssuedInstType_0::MemRead     19043221     20.67%     85.57% # Number of instructions issued per FU type, per thread (Count)
system.cpu.statIssuedInstType_0::MemWrite      9593155     10.41%     95.98% # Number of instructions issued per FU type, per thread (Count)
system.cpu.statIssuedInstType_0::FloatMemRead      2377849      2.58%     98.56% # Number of instructions issued per FU type, per thread (Count)
system.cpu.statIssuedInstType_0::FloatMemWrite      1323120      1.44%    100.00% # Number of instructions issued per FU type, per thread (Count)
system.cpu.statIssuedInstType_0::IprAccess            0      0.00%    100.00% # Number of instructions issued per FU type, per thread (Count)
system.cpu.statIssuedInstType_0::InstPrefetch            0      0.00%    100.00% # Number of instructions issued per FU type, per thread (Count)
system.cpu.statIssuedInstType_0::total       92148551                       # Number of instructions issued per FU type, per thread (Count)
system.cpu.issueRate                         1.799334                       # Inst issue rate ((Count/Cycle))
system.cpu.fuBusy                              569110                       # FU busy when requested (Count)
system.cpu.fuBusyRate                        0.006176                       # FU busy rate (busy events/executed inst) ((Count/Count))
system.cpu.intInstQueueReads                217484733                       # Number of integer instruction queue reads (Count)
system.cpu.intInstQueueWrites                99687064                       # Number of integer instruction queue writes (Count)
system.cpu.intInstQueueWakeupAccesses        82223366                       # Number of integer instruction queue wakeup accesses (Count)
system.cpu.fpInstQueueReads                  18534064                       # Number of floating instruction queue reads (Count)
system.cpu.fpInstQueueWrites                  9301778                       # Number of floating instruction queue writes (Count)
system.cpu.fpInstQueueWakeupAccesses          9263569                       # Number of floating instruction queue wakeup accesses (Count)
system.cpu.vecInstQueueReads                        0                       # Number of vector instruction queue reads (Count)
system.cpu.vecInstQueueWrites                       0                       # Number of vector instruction queue writes (Count)
system.cpu.vecInstQueueWakeupAccesses               0                       # Number of vector instruction queue wakeup accesses (Count)
system.cpu.intAluAccesses                    81856303                       # Number of integer alu accesses (Count)
system.cpu.fpAluAccesses                      9267634                       # Number of floating point alu accesses (Count)
system.cpu.vecAluAccesses                           0                       # Number of vector alu accesses (Count)
system.cpu.idleCycles                               0                       # Number of cycles IEW is idle (Cycle)
system.cpu.squashCycles                        148931                       # Number of cycles IEW is squashing (Cycle)
system.cpu.blockCycles                        1999838                       # Number of cycles IEW is blocking (Cycle)
system.cpu.unblockCycles                        24379                       # Number of cycles IEW is unblocking (Cycle)
system.cpu.dispatchedInsts                   96094008                       # Number of instructions dispatched to IQ (Count)
system.cpu.dispSquashedInsts                      778                       # Number of squashed instructions skipped by dispatch (Count)
system.cpu.dispLoadInsts                     22235889                       # Number of dispatched load instructions (Count)
system.cpu.dispStoreInsts                    11310773                       # Number of dispatched store instructions (Count)
system.cpu.dispNonSpecInsts                    917756                       # Number of dispatched non-speculative instructions (Count)
system.cpu.iqFullEvents                         10552                       # Number of times the IQ has become full, causing a stall (Count)
system.cpu.lsqFullEvents                         9638                       # Number of times the LSQ has become full, causing a stall (Count)
system.cpu.memOrderViolationEvents               3295                       # Number of memory order violations (Count)
system.cpu.predictedTakenIncorrect              72576                       # Number of branches that were predicted taken incorrectly (Count)
system.cpu.predictedNotTakenIncorrect           75391                       # Number of branches that were predicted not taken incorrectly (Count)
system.cpu.branchMispredicts                   147967                       # Number of branch mispredicts detected at execute (Count)
system.cpu.numInsts                          91680666                       # Number of executed instructions (Count)
system.cpu.numLoadInsts                      21299790                       # Number of load instructions executed (Count)
system.cpu.numSquashedInsts                    467880                       # Number of squashed instructions skipped in execute (Count)
system.cpu.numSwp                                   0                       # Number of swp insts executed (Count)
system.cpu.numNop                                   0                       # Number of nop insts executed (Count)
system.cpu.numRefs                           32075900                       # Number of memory reference insts executed (Count)
system.cpu.numBranches                        6891278                       # Number of branches executed (Count)
system.cpu.numStoreInsts                     10776110                       # Number of stores executed (Count)
system.cpu.numRate                           1.790197                       # Inst execution rate ((Count/Cycle))
system.cpu.instsToCommit                     91571696                       # Cumulative count of insts sent to commit (Count)
system.cpu.writebackCount                    91486935                       # Cumulative count of insts written-back (Count)
system.cpu.producerInst                      66175856                       # Number of instructions producing a value (Count)
system.cpu.consumerInst                     108676809                       # Number of instructions consuming a value (Count)
system.cpu.wbRate                            1.786415                       # Insts written-back per cycle ((Count/Cycle))
system.cpu.wbFanout                          0.608923                       # Average fanout of values written-back ((Count/Count))
system.cpu.timesIdled                            1543                       # Number of times that the entire CPU went into an idle state and unscheduled itself (Count)
system.cpu.idleCycles                           62226                       # Total number of cycles that the CPU has spent unscheduled due to idling (Cycle)
system.cpu.committedInsts                    46698355                       # Number of Instructions Simulated (Count)
system.cpu.committedOps                      83201955                       # Number of Ops (including micro ops) Simulated (Count)
system.cpu.cpi                               1.096668                       # CPI: Cycles Per Instruction ((Cycle/Count))
system.cpu.totalCpi                          1.096668                       # CPI: Total CPI of All Threads ((Cycle/Count))
system.cpu.ipc                               0.911853                       # IPC: Instructions Per Cycle ((Count/Cycle))
system.cpu.totalIpc                          0.911853                       # IPC: Total IPC of All Threads ((Count/Cycle))
system.cpu.intRegfileReads                  144616778                       # Number of integer regfile reads (Count)
system.cpu.intRegfileWrites                  64311770                       # Number of integer regfile writes (Count)
system.cpu.fpRegfileReads                     9169865                       # Number of floating regfile reads (Count)
system.cpu.fpRegfileWrites                    7409269                       # Number of floating regfile writes (Count)
system.cpu.ccRegfileReads                    19309234                       # number of cc regfile reads (Count)
system.cpu.ccRegfileWrites                   19679788                       # number of cc regfile writes (Count)
system.cpu.miscRegfileReads                  47010637                       # number of misc regfile reads (Count)
system.cpu.miscRegfileWrites                  1835143                       # number of misc regfile writes (Count)
system.cpu.MemDepUnit__0.insertedLoads       22235889                       # Number of loads inserted to the mem dependence unit. (Count)
system.cpu.MemDepUnit__0.insertedStores      11310773                       # Number of stores inserted to the mem dependence unit. (Count)
system.cpu.MemDepUnit__0.conflictingLoads      7573469                       # Number of conflicting loads. (Count)
system.cpu.MemDepUnit__0.conflictingStores      2203854                       # Number of conflicting stores. (Count)
system.cpu.MemDepUnit__1.insertedLoads              0                       # Number of loads inserted to the mem dependence unit. (Count)
system.cpu.MemDepUnit__1.insertedStores             0                       # Number of stores inserted to the mem dependence unit. (Count)
system.cpu.MemDepUnit__1.conflictingLoads            0                       # Number of conflicting loads. (Count)
system.cpu.MemDepUnit__1.conflictingStores            0                       # Number of conflicting stores. (Count)
system.cpu.MemDepUnit__2.insertedLoads              0                       # Number of loads inserted to the mem dependence unit. (Count)
system.cpu.MemDepUnit__2.insertedStores             0                       # Number of stores inserted to the mem dependence unit. (Count)
system.cpu.MemDepUnit__2.conflictingLoads            0                       # Number of conflicting loads. (Count)
system.cpu.MemDepUnit__2.conflictingStores            0                       # Number of conflicting stores. (Count)
system.cpu.MemDepUnit__3.insertedLoads              0                       # Number of loads inserted to the mem dependence unit. (Count)
system.cpu.MemDepUnit__3.insertedStores             0                       # Number of stores inserted to the mem dependence unit. (Count)
system.cpu.MemDepUnit__3.conflictingLoads            0                       # Number of conflicting loads. (Count)
system.cpu.MemDepUnit__3.conflictingStores            0                       # Number of conflicting stores. (Count)
system.cpu.branchPred.lookups                 7476763                       # Number of BP lookups (Count)
system.cpu.branchPred.condPredicted           2754802                       # Number of conditional branches predicted (Count)
system.cpu.branchPred.condIncorrect            146103                       # Number of conditional branches incorrect (Count)
system.cpu.branchPred.BTBLookups              4253407                       # Number of BTB lookups (Count)
system.cpu.branchPred.BTBHits                 4251225                       # Number of BTB hits (Count)
system.cpu.branchPred.BTBHitRatio            0.999487                       # BTB Hit Ratio (Ratio)
system.cpu.branchPred.RASUsed                 1592172                       # Number of times the RAS was used to get a target. (Count)
[...]
system.mem_ctrl.rdPerTurnAround::samples          562                       # Reads before turning the bus around for writes (Count)
system.mem_ctrl.rdPerTurnAround::mean       15.996441                       # Reads before turning the bus around for writes (Count)
system.mem_ctrl.rdPerTurnAround::gmean      15.993717                       # Reads before turning the bus around for writes (Count)
system.mem_ctrl.rdPerTurnAround::stdev       0.292487                       # Reads before turning the bus around for writes (Count)
system.mem_ctrl.rdPerTurnAround::13                 1      0.18%      0.18% # Reads before turning the bus around for writes (Count)
system.mem_ctrl.rdPerTurnAround::14                 2      0.36%      0.53% # Reads before turning the bus around for writes (Count)
system.mem_ctrl.rdPerTurnAround::15                10      1.78%      2.31% # Reads before turning the bus around for writes (Count)
system.mem_ctrl.rdPerTurnAround::16               536     95.37%     97.69% # Reads before turning the bus around for writes (Count)
system.mem_ctrl.rdPerTurnAround::17                12      2.14%     99.82% # Reads before turning the bus around for writes (Count)
system.mem_ctrl.rdPerTurnAround::19                 1      0.18%    100.00% # Reads before turning the bus around for writes (Count)
system.mem_ctrl.rdPerTurnAround::total            562                       # Reads before turning the bus around for writes (Count)
system.mem_ctrl.wrPerTurnAround::samples          562                       # Writes before turning the bus around for reads (Count)
system.mem_ctrl.wrPerTurnAround::mean       16.021352                       # Writes before turning the bus around for reads (Count)
system.mem_ctrl.wrPerTurnAround::gmean      16.020132                       # Writes before turning the bus around for reads (Count)
system.mem_ctrl.wrPerTurnAround::stdev       0.205728                       # Writes before turning the bus around for reads (Count)
system.mem_ctrl.wrPerTurnAround::16               556     98.93%     98.93% # Writes before turning the bus around for reads (Count)
system.mem_ctrl.wrPerTurnAround::18                 6      1.07%    100.00% # Writes before turning the bus around for reads (Count)
system.mem_ctrl.wrPerTurnAround::total            562                       # Writes before turning the bus around for reads (Count)
system.mem_ctrl.bytesReadWrQ                      896                       # Total number of bytes read from write queue (Byte)
system.mem_ctrl.bytesReadSys                   576512                       # Total read bytes from the system interface side (Byte)
system.mem_ctrl.bytesWrittenSys                576576                       # Total written bytes from the system interface side (Byte)
system.mem_ctrl.avgRdBWSys               765285818.01576734                       # Average system read bandwidth in Byte/s ((Byte/Second))
system.mem_ctrl.avgWrBWSys               765370774.25666606                       # Average system write bandwidth in Byte/s ((Byte/Second))
system.mem_ctrl.totGap                      753371000                       # Total gap between requests (Tick)
system.mem_ctrl.avgGap                       41814.45                       # Average gap between requests ((Tick/Count))
system.mem_ctrl.requestorReadBytes::caches.controllers1       575616                       # Per-requestor bytes read from memory (Byte)
system.mem_ctrl.requestorWriteBytes::caches.controllers1       576256                       # Per-requestor bytes write to memory (Byte)
system.mem_ctrl.requestorReadRate::caches.controllers1 764096430.643185138702                       # Per-requestor bytes read from memory rate ((Byte/Second))
system.mem_ctrl.requestorWriteRate::caches.controllers1 764945993.052172422409                       # Per-requestor bytes write to memory rate ((Byte/Second))
system.mem_ctrl.requestorReadAccesses::caches.controllers1         9008                       # Per-requestor read serviced memory accesses (Count)
system.mem_ctrl.requestorWriteAccesses::caches.controllers1         9009                       # Per-requestor write serviced memory accesses (Count)
system.mem_ctrl.requestorReadTotalLat::caches.controllers1    269503750                       # Per-requestor read total memory access latency (Tick)
system.mem_ctrl.requestorWriteTotalLat::caches.controllers1  18636034250                       # Per-requestor write total memory access latency (Tick)
system.mem_ctrl.requestorReadAvgLat::caches.controllers1     29918.27                       # Per-requestor read average memory access latency ((Tick/Count))
system.mem_ctrl.requestorWriteAvgLat::caches.controllers1   2068601.87                       # Per-requestor write average memory access latency ((Tick/Count))
system.mem_ctrl.dram.bytesRead::caches.controllers1       576512                       # Number of bytes read from this memory (Byte)
system.mem_ctrl.dram.bytesRead::total          576512                       # Number of bytes read from this memory (Byte)
system.mem_ctrl.dram.bytesWritten::caches.controllers1       576576                       # Number of bytes written to this memory (Byte)
system.mem_ctrl.dram.bytesWritten::total       576576                       # Number of bytes written to this memory (Byte)
system.mem_ctrl.dram.numReads::caches.controllers1         9008                       # Number of read requests responded to by this memory (Count)
system.mem_ctrl.dram.numReads::total             9008                       # Number of read requests responded to by this memory (Count)
system.mem_ctrl.dram.numWrites::caches.controllers1         9009                       # Number of write requests responded to by this memory (Count)
system.mem_ctrl.dram.numWrites::total            9009                       # Number of write requests responded to by this memory (Count)
system.mem_ctrl.dram.bwRead::caches.controllers1    765285818                       # Total read bandwidth from this memory ((Byte/Second))
system.mem_ctrl.dram.bwRead::total          765285818                       # Total read bandwidth from this memory ((Byte/Second))
system.mem_ctrl.dram.bwWrite::caches.controllers1    765370774                       # Write bandwidth from this memory ((Byte/Second))
system.mem_ctrl.dram.bwWrite::total         765370774                       # Write bandwidth from this memory ((Byte/Second))
system.mem_ctrl.dram.bwTotal::caches.controllers1   1530656592                       # Total bandwidth to/from this memory ((Byte/Second))
system.mem_ctrl.dram.bwTotal::total        1530656592                       # Total bandwidth to/from this memory ((Byte/Second))
system.mem_ctrl.dram.readBursts                  8994                       # Number of DRAM read bursts (Count)
system.mem_ctrl.dram.writeBursts                 9004                       # Number of DRAM write bursts (Count)
system.mem_ctrl.dram.perBankRdBursts::0           518                       # Per bank write bursts (Count)
system.mem_ctrl.dram.perBankRdBursts::1           543                       # Per bank write bursts (Count)
system.mem_ctrl.dram.perBankRdBursts::2           582                       # Per bank write bursts (Count)
system.mem_ctrl.dram.perBankRdBursts::3           585                       # Per bank write bursts (Count)
system.mem_ctrl.dram.perBankRdBursts::4           569                       # Per bank write bursts (Count)
system.mem_ctrl.dram.perBankRdBursts::5           547                       # Per bank write bursts (Count)
system.mem_ctrl.dram.perBankRdBursts::6           542                       # Per bank write bursts (Count)
system.mem_ctrl.dram.perBankRdBursts::7           613                       # Per bank write bursts (Count)
system.mem_ctrl.dram.perBankRdBursts::8           520                       # Per bank write bursts (Count)
system.mem_ctrl.dram.perBankRdBursts::9           574                       # Per bank write bursts (Count)
system.mem_ctrl.dram.perBankRdBursts::10          556                       # Per bank write bursts (Count)
system.mem_ctrl.dram.perBankRdBursts::11          457                       # Per bank write bursts (Count)
system.mem_ctrl.dram.perBankRdBursts::12          578                       # Per bank write bursts (Count)
system.mem_ctrl.dram.perBankRdBursts::13          647                       # Per bank write bursts (Count)
system.mem_ctrl.dram.perBankRdBursts::14          636                       # Per bank write bursts (Count)
system.mem_ctrl.dram.perBankRdBursts::15          527                       # Per bank write bursts (Count)
system.mem_ctrl.dram.perBankWrBursts::0           512                       # Per bank write bursts (Count)
system.mem_ctrl.dram.perBankWrBursts::1           516                       # Per bank write bursts (Count)
system.mem_ctrl.dram.perBankWrBursts::2           522                       # Per bank write bursts (Count)
system.mem_ctrl.dram.perBankWrBursts::3           555                       # Per bank write bursts (Count)
system.mem_ctrl.dram.perBankWrBursts::4           536                       # Per bank write bursts (Count)
system.mem_ctrl.dram.perBankWrBursts::5           527                       # Per bank write bursts (Count)
system.mem_ctrl.dram.perBankWrBursts::6           533                       # Per bank write bursts (Count)
system.mem_ctrl.dram.perBankWrBursts::7           563                       # Per bank write bursts (Count)
system.mem_ctrl.dram.perBankWrBursts::8           514                       # Per bank write bursts (Count)
system.mem_ctrl.dram.perBankWrBursts::9           553                       # Per bank write bursts (Count)
system.mem_ctrl.dram.perBankWrBursts::10          531                       # Per bank write bursts (Count)
system.mem_ctrl.dram.perBankWrBursts::11          536                       # Per bank write bursts (Count)
system.mem_ctrl.dram.perBankWrBursts::12          786                       # Per bank write bursts (Count)
system.mem_ctrl.dram.perBankWrBursts::13          665                       # Per bank write bursts (Count)
system.mem_ctrl.dram.perBankWrBursts::14          643                       # Per bank write bursts (Count)
system.mem_ctrl.dram.perBankWrBursts::15          512                       # Per bank write bursts (Count)
system.mem_ctrl.dram.totQLat                100866250                       # Total ticks spent queuing (Tick)
system.mem_ctrl.dram.totBusLat               44970000                       # Total ticks spent in databus transfers (Tick)
system.mem_ctrl.dram.totMemAccLat           269503750                       # Total ticks spent from burst creation until serviced by the DRAM (Tick)
system.mem_ctrl.dram.avgQLat                 11214.84                       # Average queueing delay per DRAM burst ((Tick/Count))
system.mem_ctrl.dram.avgBusLat                5000.00                       # Average bus latency per DRAM burst ((Tick/Count))
system.mem_ctrl.dram.avgMemAccLat            29964.84                       # Average memory access latency per DRAM burst ((Tick/Count))
system.mem_ctrl.dram.readRowHits                 8136                       # Number of row buffer hits during reads (Count)
system.mem_ctrl.dram.writeRowHits                8171                       # Number of row buffer hits during writes (Count)
system.mem_ctrl.dram.readRowHitRate             90.46                       # Row buffer hit rate for reads (Ratio)
system.mem_ctrl.dram.writeRowHitRate            90.75                       # Row buffer hit rate for writes (Ratio)
system.mem_ctrl.dram.bytesPerActivate::samples         1683                       # Bytes accessed per row activation (Byte)
system.mem_ctrl.dram.bytesPerActivate::mean   683.084967                       # Bytes accessed per row activation (Byte)
system.mem_ctrl.dram.bytesPerActivate::gmean   483.645178                       # Bytes accessed per row activation (Byte)
system.mem_ctrl.dram.bytesPerActivate::stdev   397.897577                       # Bytes accessed per row activation (Byte)
system.mem_ctrl.dram.bytesPerActivate::0-127          211     12.54%     12.54% # Bytes accessed per row activation (Byte)
system.mem_ctrl.dram.bytesPerActivate::128-255          193     11.47%     24.00% # Bytes accessed per row activation (Byte)
system.mem_ctrl.dram.bytesPerActivate::256-383          127      7.55%     31.55% # Bytes accessed per row activation (Byte)
system.mem_ctrl.dram.bytesPerActivate::384-511           70      4.16%     35.71% # Bytes accessed per row activation (Byte)
system.mem_ctrl.dram.bytesPerActivate::512-639           70      4.16%     39.87% # Bytes accessed per row activation (Byte)
system.mem_ctrl.dram.bytesPerActivate::640-767           55      3.27%     43.14% # Bytes accessed per row activation (Byte)
system.mem_ctrl.dram.bytesPerActivate::768-895           41      2.44%     45.57% # Bytes accessed per row activation (Byte)
system.mem_ctrl.dram.bytesPerActivate::896-1023           41      2.44%     48.01% # Bytes accessed per row activation (Byte)
system.mem_ctrl.dram.bytesPerActivate::1024-1151          875     51.99%    100.00% # Bytes accessed per row activation (Byte)
system.mem_ctrl.dram.bytesPerActivate::total         1683                       # Bytes accessed per row activation (Byte)
system.mem_ctrl.dram.bytesRead                 575616                       # Total number of bytes read from DRAM (Byte)
system.mem_ctrl.dram.bytesWritten              576256                       # Total number of bytes written to DRAM (Byte)
system.mem_ctrl.dram.avgRdBW               764.096431                       # Average DRAM read bandwidth in MiBytes/s ((Byte/Second))
system.mem_ctrl.dram.avgWrBW               764.945993                       # Average DRAM write bandwidth in MiBytes/s ((Byte/Second))
system.mem_ctrl.dram.peakBW                  12800.00                       # Theoretical peak bandwidth in MiByte/s ((Byte/Second))
system.mem_ctrl.dram.busUtil                    11.95                       # Data bus utilization in percentage (Ratio)
system.mem_ctrl.dram.busUtilRead                 5.97                       # Data bus utilization in percentage for reads (Ratio)
system.mem_ctrl.dram.busUtilWrite                5.98                       # Data bus utilization in percentage for writes (Ratio)
system.mem_ctrl.dram.pageHitRate                90.60                       # Row buffer hit rate, read and write combined (Ratio)
system.mem_ctrl.dram.power_state.pwrStateResidencyTicks::UNDEFINED    753329000                       # Cumulative time (in ticks) in various power states (Tick)
system.mem_ctrl.dram.rank0.actEnergy          5854800                       # Energy for activate commands per rank (pJ) (Joule)
system.mem_ctrl.dram.rank0.preEnergy          3092925                       # Energy for precharge commands per rank (pJ) (Joule)
system.mem_ctrl.dram.rank0.readEnergy        32122860                       # Energy for read commands per rank (pJ) (Joule)
system.mem_ctrl.dram.rank0.writeEnergy       22258080                       # Energy for write commands per rank (pJ) (Joule)
system.mem_ctrl.dram.rank0.refreshEnergy 59005440.000000                       # Energy for refresh commands per rank (pJ) (Joule)
system.mem_ctrl.dram.rank0.actBackEnergy    254664600                       # Energy for active background per rank (pJ) (Joule)
system.mem_ctrl.dram.rank0.preBackEnergy     74823840                       # Energy for precharge background per rank (pJ) (Joule)
system.mem_ctrl.dram.rank0.actPowerDownEnergy            0                       # Energy for active power-down per rank (pJ) (Joule)
system.mem_ctrl.dram.rank0.prePowerDownEnergy            0                       # Energy for precharge power-down per rank (pJ) (Joule)
system.mem_ctrl.dram.rank0.selfRefreshEnergy            0                       # Energy for self refresh per rank (pJ) (Joule)
system.mem_ctrl.dram.rank0.totalEnergy      451822545                       # Total energy per rank (pJ) (Joule)
system.mem_ctrl.dram.rank0.averagePower    599.767890                       # Core power per rank (mW) (Watt)
system.mem_ctrl.dram.rank0.totalIdleTime            0                       # Total Idle time Per DRAM Rank (Tick)
system.mem_ctrl.dram.rank0.pwrStateTime::IDLE    190884500                       # Time in different power states (Tick)
system.mem_ctrl.dram.rank0.pwrStateTime::REF     24960000                       # Time in different power states (Tick)
system.mem_ctrl.dram.rank0.pwrStateTime::SREF            0                       # Time in different power states (Tick)
system.mem_ctrl.dram.rank0.pwrStateTime::PRE_PDN            0                       # Time in different power states (Tick)
system.mem_ctrl.dram.rank0.pwrStateTime::ACT    537484500                       # Time in different power states (Tick)
system.mem_ctrl.dram.rank0.pwrStateTime::ACT_PDN            0                       # Time in different power states (Tick)
system.mem_ctrl.dram.rank1.actEnergy          6218940                       # Energy for activate commands per rank (pJ) (Joule)
system.mem_ctrl.dram.rank1.preEnergy          3294060                       # Energy for precharge commands per rank (pJ) (Joule)
system.mem_ctrl.dram.rank1.readEnergy        32094300                       # Energy for read commands per rank (pJ) (Joule)
system.mem_ctrl.dram.rank1.writeEnergy       24742800                       # Energy for write commands per rank (pJ) (Joule)
system.mem_ctrl.dram.rank1.refreshEnergy 59005440.000000                       # Energy for refresh commands per rank (pJ) (Joule)
system.mem_ctrl.dram.rank1.actBackEnergy    263066970                       # Energy for active background per rank (pJ) (Joule)
system.mem_ctrl.dram.rank1.preBackEnergy     67748160                       # Energy for precharge background per rank (pJ) (Joule)
system.mem_ctrl.dram.rank1.actPowerDownEnergy            0                       # Energy for active power-down per rank (pJ) (Joule)
system.mem_ctrl.dram.rank1.prePowerDownEnergy            0                       # Energy for precharge power-down per rank (pJ) (Joule)
system.mem_ctrl.dram.rank1.selfRefreshEnergy            0                       # Energy for self refresh per rank (pJ) (Joule)
system.mem_ctrl.dram.rank1.totalEnergy      456170670                       # Total energy per rank (pJ) (Joule)
system.mem_ctrl.dram.rank1.averagePower    605.539771                       # Core power per rank (mW) (Watt)
system.mem_ctrl.dram.rank1.totalIdleTime            0                       # Total Idle time Per DRAM Rank (Tick)
system.mem_ctrl.dram.rank1.pwrStateTime::IDLE    172377250                       # Time in different power states (Tick)
system.mem_ctrl.dram.rank1.pwrStateTime::REF     24960000                       # Time in different power states (Tick)
system.mem_ctrl.dram.rank1.pwrStateTime::SREF            0                       # Time in different power states (Tick)
system.mem_ctrl.dram.rank1.pwrStateTime::PRE_PDN            0                       # Time in different power states (Tick)
system.mem_ctrl.dram.rank1.pwrStateTime::ACT    555991750                       # Time in different power states (Tick)
system.mem_ctrl.dram.rank1.pwrStateTime::ACT_PDN            0                       # Time in different power states (Tick)
system.mem_ctrl.power_state.pwrStateResidencyTicks::UNDEFINED    753329000                       # Cumulative time (in ticks) in various power states (Tick)
system.workload.inst.arm                            0                       # number of arm instructions executed (Count)
system.workload.inst.quiesce                        0                       # number of quiesce instructions executed (Count)

---------- End Simulation Statistics   ----------
