
---------- Begin Simulation Statistics ----------
simSeconds                                   0.012035                       # Number of seconds simulated (Second)
simTicks                                  12035074000                       # Number of ticks simulated (Tick)
finalTick                                 21260824000                       # Number of ticks from beginning of simulation (restored from checkpoints and never reset) (Tick)
simFreq                                  1000000000000                       # The number of ticks per simulated second ((Tick/Second))
hostSeconds                                     33.13                       # Real time elapsed on the host (Second)
hostTickRate                                363322743                       # The number of ticks simulated per host second (ticks/s) ((Tick/Second))
hostMemory                                    9646224                       # Number of bytes of host memory used (Byte)
simInsts                                      6464554                       # Number of instructions simulated (Count)
simOps                                       12337784                       # Number of ops (including micro ops) simulated (Count)
hostInstRate                                   195155                       # Simulator instruction rate (inst/s) ((Count/Second))
hostOpRate                                     372459                       # Simulator op (including micro ops) rate (op/s) ((Count/Second))
system.caches.delayHistogram::bucket_size            8                       # delay histogram for all message (Unspecified)
system.caches.delayHistogram::max_bucket           79                       # delay histogram for all message (Unspecified)
system.caches.delayHistogram::samples          788314                       # delay histogram for all message (Unspecified)
system.caches.delayHistogram::mean           0.272161                       # delay histogram for all message (Unspecified)
system.caches.delayHistogram::stdev          1.542725                       # delay histogram for all message (Unspecified)
system.caches.delayHistogram             |      782932     99.32%     99.32% |        3595      0.46%     99.77% |        1142      0.14%     99.92% |         481      0.06%     99.98% |         114      0.01%     99.99% |          32      0.00%    100.00% |          13      0.00%    100.00% |           4      0.00%    100.00% |           1      0.00%    100.00% |           0      0.00%    100.00% # delay histogram for all message (Unspecified)
system.caches.delayHistogram::total            788314                       # delay histogram for all message (Unspecified)
system.caches.m_outstandReqHistSeqr::bucket_size            1                       (Unspecified)
system.caches.m_outstandReqHistSeqr::max_bucket            9                       (Unspecified)
system.caches.m_outstandReqHistSeqr::samples      1048584                       (Unspecified)
system.caches.m_outstandReqHistSeqr::mean     1.000032                       (Unspecified)
system.caches.m_outstandReqHistSeqr::gmean     1.000022                       (Unspecified)
system.caches.m_outstandReqHistSeqr::stdev     0.006020                       (Unspecified)
system.caches.m_outstandReqHistSeqr      |           0      0.00%      0.00% |     1048552    100.00%    100.00% |          30      0.00%    100.00% |           2      0.00%    100.00% |           0      0.00%    100.00% |           0      0.00%    100.00% |           0      0.00%    100.00% |           0      0.00%    100.00% |           0      0.00%    100.00% |           0      0.00%    100.00% (Unspecified)
system.caches.m_outstandReqHistSeqr::total      1048584                       (Unspecified)
system.caches.m_latencyHistSeqr::bucket_size           64                       (Unspecified)
system.caches.m_latencyHistSeqr::max_bucket          639                       (Unspecified)
system.caches.m_latencyHistSeqr::samples      1048583                       (Unspecified)
system.caches.m_latencyHistSeqr::mean        9.477742                       (Unspecified)
system.caches.m_latencyHistSeqr::gmean       1.679046                       (Unspecified)
system.caches.m_latencyHistSeqr::stdev      27.049660                       (Unspecified)
system.caches.m_latencyHistSeqr          |     1033603     98.57%     98.57% |        5374      0.51%     99.08% |        3226      0.31%     99.39% |        4834      0.46%     99.85% |        1039      0.10%     99.95% |         389      0.04%     99.99% |           0      0.00%     99.99% |          60      0.01%     99.99% |          58      0.01%    100.00% |           0      0.00%    100.00% (Unspecified)
system.caches.m_latencyHistSeqr::total        1048583                       (Unspecified)
system.caches.m_hitLatencyHistSeqr::bucket_size            1                       (Unspecified)
system.caches.m_hitLatencyHistSeqr::max_bucket            9                       (Unspecified)
system.caches.m_hitLatencyHistSeqr::samples       917506                       (Unspecified)
system.caches.m_hitLatencyHistSeqr::mean            1                       (Unspecified)
system.caches.m_hitLatencyHistSeqr::gmean            1                       (Unspecified)
system.caches.m_hitLatencyHistSeqr       |           0      0.00%      0.00% |      917506    100.00%    100.00% |           0      0.00%    100.00% |           0      0.00%    100.00% |           0      0.00%    100.00% |           0      0.00%    100.00% |           0      0.00%    100.00% |           0      0.00%    100.00% |           0      0.00%    100.00% |           0      0.00%    100.00% (Unspecified)
system.caches.m_hitLatencyHistSeqr::total       917506                       (Unspecified)
system.caches.m_missLatencyHistSeqr::bucket_size           64                       (Unspecified)
system.caches.m_missLatencyHistSeqr::max_bucket          639                       (Unspecified)
system.caches.m_missLatencyHistSeqr::samples       131077                       (Unspecified)
system.caches.m_missLatencyHistSeqr::mean    68.819801                       (Unspecified)
system.caches.m_missLatencyHistSeqr::gmean    63.160343                       (Unspecified)
system.caches.m_missLatencyHistSeqr::stdev    42.763659                       (Unspecified)
system.caches.m_missLatencyHistSeqr      |      116097     88.57%     88.57% |        5374      4.10%     92.67% |        3226      2.46%     95.13% |        4834      3.69%     98.82% |        1039      0.79%     99.61% |         389      0.30%     99.91% |           0      0.00%     99.91% |          60      0.05%     99.96% |          58      0.04%    100.00% |           0      0.00%    100.00% (Unspecified)
system.caches.m_missLatencyHistSeqr::total       131077                       (Unspecified)
system.caches.delayVCHist.vnet_1::bucket_size            2                       # delay histogram for vnet_1 (Unspecified)
system.caches.delayVCHist.vnet_1::max_bucket           19                       # delay histogram for vnet_1 (Unspecified)
system.caches.delayVCHist.vnet_1::samples       394172                       # delay histogram for vnet_1 (Unspecified)
system.caches.delayVCHist.vnet_1::mean       0.061278                       # delay histogram for vnet_1 (Unspecified)
system.caches.delayVCHist.vnet_1::stdev      0.611323                       # delay histogram for vnet_1 (Unspecified)
system.caches.delayVCHist.vnet_1         |      389313     98.77%     98.77% |        1350      0.34%     99.11% |        1079      0.27%     99.38% |        1328      0.34%     99.72% |        1023      0.26%     99.98% |          35      0.01%     99.99% |          12      0.00%     99.99% |          13      0.00%    100.00% |          16      0.00%    100.00% |           3      0.00%    100.00% # delay histogram for vnet_1 (Unspecified)
system.caches.delayVCHist.vnet_1::total        394172                       # delay histogram for vnet_1 (Unspecified)
system.caches.delayVCHist.vnet_2::bucket_size            8                       # delay histogram for vnet_2 (Unspecified)
system.caches.delayVCHist.vnet_2::max_bucket           79                       # delay histogram for vnet_2 (Unspecified)
system.caches.delayVCHist.vnet_2::samples       394142                       # delay histogram for vnet_2 (Unspecified)
system.caches.delayVCHist.vnet_2::mean       0.483059                       # delay histogram for vnet_2 (Unspecified)
system.caches.delayVCHist.vnet_2::stdev      2.073038                       # delay histogram for vnet_2 (Unspecified)
system.caches.delayVCHist.vnet_2         |      389862     98.91%     98.91% |        2512      0.64%     99.55% |        1123      0.28%     99.84% |         481      0.12%     99.96% |         114      0.03%     99.99% |          32      0.01%    100.00% |          13      0.00%    100.00% |           4      0.00%    100.00% |           1      0.00%    100.00% |           0      0.00%    100.00% # delay histogram for vnet_2 (Unspecified)
system.caches.delayVCHist.vnet_2::total        394142                       # delay histogram for vnet_2 (Unspecified)
system.caches.L1Cache_Controller.Load         1522788      0.00%      0.00% (Unspecified)
system.caches.L1Cache_Controller.Ifetch        264691      0.00%      0.00% (Unspecified)
system.caches.L1Cache_Controller.Store         211655      0.00%      0.00% (Unspecified)
system.caches.L1Cache_Controller.Data          394172      0.00%      0.00% (Unspecified)
system.caches.L1Cache_Controller.Replacement       394142      0.00%      0.00% (Unspecified)
system.caches.L1Cache_Controller.Writeback_Ack       394142      0.00%      0.00% (Unspecified)
system.caches.L1Cache_Controller.I.Load        252981      0.00%      0.00% (Unspecified)
system.caches.L1Cache_Controller.I.Ifetch       109492      0.00%      0.00% (Unspecified)
system.caches.L1Cache_Controller.I.Store        31701      0.00%      0.00% (Unspecified)
system.caches.L1Cache_Controller.M.Load       1269807      0.00%      0.00% (Unspecified)
system.caches.L1Cache_Controller.M.Ifetch       155199      0.00%      0.00% (Unspecified)
system.caches.L1Cache_Controller.M.Store       179954      0.00%      0.00% (Unspecified)
system.caches.L1Cache_Controller.M.Replacement       394142      0.00%      0.00% (Unspecified)
system.caches.L1Cache_Controller.MI.Writeback_Ack       394142      0.00%      0.00% (Unspecified)
system.caches.L1Cache_Controller.IS.Data       362471      0.00%      0.00% (Unspecified)
system.caches.L1Cache_Controller.IM.Data        31701      0.00%      0.00% (Unspecified)
system.caches.Directory_Controller.GETX        394174      0.00%      0.00% (Unspecified)
system.caches.Directory_Controller.PUTX        394142      0.00%      0.00% (Unspecified)
system.caches.Directory_Controller.Memory_Data       394173      0.00%      0.00% (Unspecified)
system.caches.Directory_Controller.Memory_Ack       394142      0.00%      0.00% (Unspecified)
system.caches.Directory_Controller.I.GETX       394174      0.00%      0.00% (Unspecified)
system.caches.Directory_Controller.M.PUTX       394142      0.00%      0.00% (Unspecified)
system.caches.Directory_Controller.IM.Memory_Data       394173      0.00%      0.00% (Unspecified)
system.caches.Directory_Controller.MI.Memory_Ack       394142      0.00%      0.00% (Unspecified)
system.caches.MachineType.Directory.miss_mach_latency_hist_seqr::bucket_size           64                       (Unspecified)
system.caches.MachineType.Directory.miss_mach_latency_hist_seqr::max_bucket          639                       (Unspecified)
system.caches.MachineType.Directory.miss_mach_latency_hist_seqr::samples       131077                       (Unspecified)
system.caches.MachineType.Directory.miss_mach_latency_hist_seqr::mean    68.819801                       (Unspecified)
system.caches.MachineType.Directory.miss_mach_latency_hist_seqr::gmean    63.160343                       (Unspecified)
system.caches.MachineType.Directory.miss_mach_latency_hist_seqr::stdev    42.763659                       (Unspecified)
system.caches.MachineType.Directory.miss_mach_latency_hist_seqr |      116097     88.57%     88.57% |        5374      4.10%     92.67% |        3226      2.46%     95.13% |        4834      3.69%     98.82% |        1039      0.79%     99.61% |         389      0.30%     99.91% |           0      0.00%     99.91% |          60      0.05%     99.96% |          58      0.04%    100.00% |           0      0.00%    100.00% (Unspecified)
system.caches.MachineType.Directory.miss_mach_latency_hist_seqr::total       131077                       (Unspecified)
system.caches.MachineType.Directory.incomplete_times_seqr       394171                       (Unspecified)
system.caches.RequestType.LD.latency_hist_seqr::bucket_size           64                       (Unspecified)
system.caches.RequestType.LD.latency_hist_seqr::max_bucket          639                       (Unspecified)
system.caches.RequestType.LD.latency_hist_seqr::samples      1048576                       (Unspecified)
system.caches.RequestType.LD.latency_hist_seqr::mean     9.477465                       (Unspecified)
system.caches.RequestType.LD.latency_hist_seqr::gmean     1.679018                       (Unspecified)
system.caches.RequestType.LD.latency_hist_seqr::stdev    27.049408                       (Unspecified)
system.caches.RequestType.LD.latency_hist_seqr |     1033600     98.57%     98.57% |        5370      0.51%     99.08% |        3226      0.31%     99.39% |        4834      0.46%     99.85% |        1039      0.10%     99.95% |         389      0.04%     99.99% |           0      0.00%     99.99% |          60      0.01%     99.99% |          58      0.01%    100.00% |           0      0.00%    100.00% (Unspecified)
system.caches.RequestType.LD.latency_hist_seqr::total      1048576                       (Unspecified)
system.caches.RequestType.LD.hit_latency_hist_seqr::bucket_size            1                       (Unspecified)
system.caches.RequestType.LD.hit_latency_hist_seqr::max_bucket            9                       (Unspecified)
system.caches.RequestType.LD.hit_latency_hist_seqr::samples       917504                       (Unspecified)
system.caches.RequestType.LD.hit_latency_hist_seqr::mean            1                       (Unspecified)
system.caches.RequestType.LD.hit_latency_hist_seqr::gmean            1                       (Unspecified)
system.caches.RequestType.LD.hit_latency_hist_seqr |           0      0.00%      0.00% |      917504    100.00%    100.00% |           0      0.00%    100.00% |           0      0.00%    100.00% |           0      0.00%    100.00% |           0      0.00%    100.00% |           0      0.00%    100.00% |           0      0.00%    100.00% |           0      0.00%    100.00% |           0      0.00%    100.00% (Unspecified)
system.caches.RequestType.LD.hit_latency_hist_seqr::total       917504                       (Unspecified)
system.caches.RequestType.LD.miss_latency_hist_seqr::bucket_size           64                       (Unspecified)
system.caches.RequestType.LD.miss_latency_hist_seqr::max_bucket          639                       (Unspecified)
system.caches.RequestType.LD.miss_latency_hist_seqr::samples       131072                       (Unspecified)
system.caches.RequestType.LD.miss_latency_hist_seqr::mean    68.819717                       (Unspecified)
system.caches.RequestType.LD.miss_latency_hist_seqr::gmean    63.160080                       (Unspecified)
system.caches.RequestType.LD.miss_latency_hist_seqr::stdev    42.764438                       (Unspecified)
system.caches.RequestType.LD.miss_latency_hist_seqr |      116096     88.57%     88.57% |        5370      4.10%     92.67% |        3226      2.46%     95.13% |        4834      3.69%     98.82% |        1039      0.79%     99.61% |         389      0.30%     99.91% |           0      0.00%     99.91% |          60      0.05%     99.96% |          58      0.04%    100.00% |           0      0.00%    100.00% (Unspecified)
system.caches.RequestType.LD.miss_latency_hist_seqr::total       131072                       (Unspecified)
system.caches.RequestType.ST.latency_hist_seqr::bucket_size            8                       (Unspecified)
system.caches.RequestType.ST.latency_hist_seqr::max_bucket           79                       (Unspecified)
system.caches.RequestType.ST.latency_hist_seqr::samples            1                       (Unspecified)
system.caches.RequestType.ST.latency_hist_seqr::mean           71                       (Unspecified)
system.caches.RequestType.ST.latency_hist_seqr::gmean           71                       (Unspecified)
system.caches.RequestType.ST.latency_hist_seqr::stdev          nan                       (Unspecified)
system.caches.RequestType.ST.latency_hist_seqr |           0      0.00%      0.00% |           0      0.00%      0.00% |           0      0.00%      0.00% |           0      0.00%      0.00% |           0      0.00%      0.00% |           0      0.00%      0.00% |           0      0.00%      0.00% |           0      0.00%      0.00% |           1    100.00%    100.00% |           0      0.00%    100.00% (Unspecified)
system.caches.RequestType.ST.latency_hist_seqr::total            1                       (Unspecified)
system.caches.RequestType.ST.miss_latency_hist_seqr::bucket_size            8                       (Unspecified)
system.caches.RequestType.ST.miss_latency_hist_seqr::max_bucket           79                       (Unspecified)
system.caches.RequestType.ST.miss_latency_hist_seqr::samples            1                       (Unspecified)
system.caches.RequestType.ST.miss_latency_hist_seqr::mean           71                       (Unspecified)
system.caches.RequestType.ST.miss_latency_hist_seqr::gmean           71                       (Unspecified)
system.caches.RequestType.ST.miss_latency_hist_seqr::stdev          nan                       (Unspecified)
system.caches.RequestType.ST.miss_latency_hist_seqr |           0      0.00%      0.00% |           0      0.00%      0.00% |           0      0.00%      0.00% |           0      0.00%      0.00% |           0      0.00%      0.00% |           0      0.00%      0.00% |           0      0.00%      0.00% |           0      0.00%      0.00% |           1    100.00%    100.00% |           0      0.00%    100.00% (Unspecified)
system.caches.RequestType.ST.miss_latency_hist_seqr::total            1                       (Unspecified)
system.caches.RequestType.IFETCH.latency_hist_seqr::bucket_size           16                       (Unspecified)
system.caches.RequestType.IFETCH.latency_hist_seqr::max_bucket          159                       (Unspecified)
system.caches.RequestType.IFETCH.latency_hist_seqr::samples            6                       (Unspecified)
system.caches.RequestType.IFETCH.latency_hist_seqr::mean    47.666667                       (Unspecified)
system.caches.RequestType.IFETCH.latency_hist_seqr::gmean    17.033416                       (Unspecified)
system.caches.RequestType.IFETCH.latency_hist_seqr::stdev    37.216484                       (Unspecified)
system.caches.RequestType.IFETCH.latency_hist_seqr |           2     33.33%     33.33% |           0      0.00%     33.33% |           0      0.00%     33.33% |           1     16.67%     50.00% |           2     33.33%     83.33% |           1     16.67%    100.00% |           0      0.00%    100.00% |           0      0.00%    100.00% |           0      0.00%    100.00% |           0      0.00%    100.00% (Unspecified)
system.caches.RequestType.IFETCH.latency_hist_seqr::total            6                       (Unspecified)
system.caches.RequestType.IFETCH.hit_latency_hist_seqr::bucket_size            1                       (Unspecified)
system.caches.RequestType.IFETCH.hit_latency_hist_seqr::max_bucket            9                       (Unspecified)
system.caches.RequestType.IFETCH.hit_latency_hist_seqr::samples            2                       (Unspecified)
system.caches.RequestType.IFETCH.hit_latency_hist_seqr::mean            1                       (Unspecified)
system.caches.RequestType.IFETCH.hit_latency_hist_seqr::gmean            1                       (Unspecified)
system.caches.RequestType.IFETCH.hit_latency_hist_seqr |           0      0.00%      0.00% |           2    100.00%    100.00% |           0      0.00%    100.00% |           0      0.00%    100.00% |           0      0.00%    100.00% |           0      0.00%    100.00% |           0      0.00%    100.00% |           0      0.00%    100.00% |           0      0.00%    100.00% |           0      0.00%    100.00% (Unspecified)
system.caches.RequestType.IFETCH.hit_latency_hist_seqr::total            2                       (Unspecified)
system.caches.RequestType.IFETCH.miss_latency_hist_seqr::bucket_size           16                       (Unspecified)
system.caches.RequestType.IFETCH.miss_latency_hist_seqr::max_bucket          159                       (Unspecified)
system.caches.RequestType.IFETCH.miss_latency_hist_seqr::samples            4                       (Unspecified)
system.caches.RequestType.IFETCH.miss_latency_hist_seqr::mean           71                       (Unspecified)
system.caches.RequestType.IFETCH.miss_latency_hist_seqr::gmean    70.299562                       (Unspecified)
system.caches.RequestType.IFETCH.miss_latency_hist_seqr::stdev    11.430952                       (Unspecified)
system.caches.RequestType.IFETCH.miss_latency_hist_seqr |           0      0.00%      0.00% |           0      0.00%      0.00% |           0      0.00%      0.00% |           1     25.00%     25.00% |           2     50.00%     75.00% |           1     25.00%    100.00% |           0      0.00%    100.00% |           0      0.00%    100.00% |           0      0.00%    100.00% |           0      0.00%    100.00% (Unspecified)
system.caches.RequestType.IFETCH.miss_latency_hist_seqr::total            4                       (Unspecified)
system.caches.RequestTypeMachineType.LD.Directory.miss_type_mach_latency_hist_seqr::bucket_size           64                       (Unspecified)
system.caches.RequestTypeMachineType.LD.Directory.miss_type_mach_latency_hist_seqr::max_bucket          639                       (Unspecified)
system.caches.RequestTypeMachineType.LD.Directory.miss_type_mach_latency_hist_seqr::samples       131072                       (Unspecified)
system.caches.RequestTypeMachineType.LD.Directory.miss_type_mach_latency_hist_seqr::mean    68.819717                       (Unspecified)
system.caches.RequestTypeMachineType.LD.Directory.miss_type_mach_latency_hist_seqr::gmean    63.160080                       (Unspecified)
system.caches.RequestTypeMachineType.LD.Directory.miss_type_mach_latency_hist_seqr::stdev    42.764438                       (Unspecified)
system.caches.RequestTypeMachineType.LD.Directory.miss_type_mach_latency_hist_seqr |      116096     88.57%     88.57% |        5370      4.10%     92.67% |        3226      2.46%     95.13% |        4834      3.69%     98.82% |        1039      0.79%     99.61% |         389      0.30%     99.91% |           0      0.00%     99.91% |          60      0.05%     99.96% |          58      0.04%    100.00% |           0      0.00%    100.00% (Unspecified)
system.caches.RequestTypeMachineType.LD.Directory.miss_type_mach_latency_hist_seqr::total       131072                       (Unspecified)
system.caches.RequestTypeMachineType.ST.Directory.miss_type_mach_latency_hist_seqr::bucket_size            8                       (Unspecified)
system.caches.RequestTypeMachineType.ST.Directory.miss_type_mach_latency_hist_seqr::max_bucket           79                       (Unspecified)
system.caches.RequestTypeMachineType.ST.Directory.miss_type_mach_latency_hist_seqr::samples            1                       (Unspecified)
system.caches.RequestTypeMachineType.ST.Directory.miss_type_mach_latency_hist_seqr::mean           71                       (Unspecified)
system.caches.RequestTypeMachineType.ST.Directory.miss_type_mach_latency_hist_seqr::gmean           71                       (Unspecified)
system.caches.RequestTypeMachineType.ST.Directory.miss_type_mach_latency_hist_seqr::stdev          nan                       (Unspecified)
system.caches.RequestTypeMachineType.ST.Directory.miss_type_mach_latency_hist_seqr |           0      0.00%      0.00% |           0      0.00%      0.00% |           0      0.00%      0.00% |           0      0.00%      0.00% |           0      0.00%      0.00% |           0      0.00%      0.00% |           0      0.00%      0.00% |           0      0.00%      0.00% |           1    100.00%    100.00% |           0      0.00%    100.00% (Unspecified)
system.caches.RequestTypeMachineType.ST.Directory.miss_type_mach_latency_hist_seqr::total            1                       (Unspecified)
system.caches.RequestTypeMachineType.IFETCH.Directory.miss_type_mach_latency_hist_seqr::bucket_size           16                       (Unspecified)
system.caches.RequestTypeMachineType.IFETCH.Directory.miss_type_mach_latency_hist_seqr::max_bucket          159                       (Unspecified)
system.caches.RequestTypeMachineType.IFETCH.Directory.miss_type_mach_latency_hist_seqr::samples            4                       (Unspecified)
system.caches.RequestTypeMachineType.IFETCH.Directory.miss_type_mach_latency_hist_seqr::mean           71                       (Unspecified)
system.caches.RequestTypeMachineType.IFETCH.Directory.miss_type_mach_latency_hist_seqr::gmean    70.299562                       (Unspecified)
system.caches.RequestTypeMachineType.IFETCH.Directory.miss_type_mach_latency_hist_seqr::stdev    11.430952                       (Unspecified)
system.caches.RequestTypeMachineType.IFETCH.Directory.miss_type_mach_latency_hist_seqr |           0      0.00%      0.00% |           0      0.00%      0.00% |           0      0.00%      0.00% |           1     25.00%     25.00% |           2     50.00%     75.00% |           1     25.00%    100.00% |           0      0.00%    100.00% |           0      0.00%    100.00% |           0      0.00%    100.00% |           0      0.00%    100.00% (Unspecified)
system.caches.RequestTypeMachineType.IFETCH.Directory.miss_type_mach_latency_hist_seqr::total            4                       (Unspecified)
system.caches.controllers0.delayHistogram::samples       788314                       # delay_histogram (Unspecified)
system.caches.controllers0.delayHistogram::mean     0.272161                       # delay_histogram (Unspecified)
system.caches.controllers0.delayHistogram::stdev     1.542725                       # delay_histogram (Unspecified)
system.caches.controllers0.delayHistogram::0-7       782932     99.32%     99.32% # delay_histogram (Unspecified)
system.caches.controllers0.delayHistogram::8-15         3595      0.46%     99.77% # delay_histogram (Unspecified)
system.caches.controllers0.delayHistogram::16-23         1142      0.14%     99.92% # delay_histogram (Unspecified)
system.caches.controllers0.delayHistogram::24-31          481      0.06%     99.98% # delay_histogram (Unspecified)
system.caches.controllers0.delayHistogram::32-39          114      0.01%     99.99% # delay_histogram (Unspecified)
system.caches.controllers0.delayHistogram::40-47           32      0.00%    100.00% # delay_histogram (Unspecified)
system.caches.controllers0.delayHistogram::48-55           13      0.00%    100.00% # delay_histogram (Unspecified)
system.caches.controllers0.delayHistogram::56-63            4      0.00%    100.00% # delay_histogram (Unspecified)
system.caches.controllers0.delayHistogram::64-71            1      0.00%    100.00% # delay_histogram (Unspecified)
system.caches.controllers0.delayHistogram::total       788314                       # delay_histogram (Unspecified)
system.caches.controllers0.cacheMemory.m_demand_hits      1604960                       # Number of cache demand hits (Unspecified)
system.caches.controllers0.cacheMemory.m_demand_misses       394174                       # Number of cache demand misses (Unspecified)
system.caches.controllers0.cacheMemory.m_demand_accesses      1999134                       # Number of cache demand accesses (Unspecified)
system.caches.controllers0.forwardToCache.m_buf_msgs     0.018538                       # Average number of messages in buffer (Unspecified)
system.caches.controllers0.forwardToCache.m_stall_time  5108.311606                       # Average number of cycles messages are stalled in this MB (Unspecified)
system.caches.controllers0.mandatoryQueue.m_buf_msgs     0.108682                       # Average number of messages in buffer (Unspecified)
system.caches.controllers0.mandatoryQueue.m_stall_time  1078.598271                       # Average number of cycles messages are stalled in this MB (Unspecified)
system.caches.controllers0.power_state.pwrStateResidencyTicks::UNDEFINED  21260824000                       # Cumulative time (in ticks) in various power states (Tick)
system.caches.controllers0.requestFromCache.m_buf_msgs     0.074157                       # Average number of messages in buffer (Unspecified)
system.caches.controllers0.requestFromCache.m_stall_time  1999.999718                       # Average number of cycles messages are stalled in this MB (Unspecified)
system.caches.controllers0.responseToCache.m_buf_msgs     0.018540                       # Average number of messages in buffer (Unspecified)
system.caches.controllers0.responseToCache.m_stall_time  5016.405996                       # Average number of cycles messages are stalled in this MB (Unspecified)
system.caches.controllers1.forwardFromDir.m_buf_msgs     0.018538                       # Average number of messages in buffer (Unspecified)
system.caches.controllers1.forwardFromDir.m_stall_time   999.960538                       # Average number of cycles messages are stalled in this MB (Unspecified)
system.caches.controllers1.power_state.pwrStateResidencyTicks::UNDEFINED  21260824000                       # Cumulative time (in ticks) in various power states (Tick)
system.caches.controllers1.requestToDir.m_buf_msgs     0.037078                       # Average number of messages in buffer (Unspecified)
system.caches.controllers1.requestToDir.m_stall_time 10222.378352                       # Average number of cycles messages are stalled in this MB (Unspecified)
system.caches.controllers1.requestToMemory.m_buf_msgs     0.037159                       # Average number of messages in buffer (Unspecified)
system.caches.controllers1.requestToMemory.m_stall_time  1000.361228                       # Average number of cycles messages are stalled in this MB (Unspecified)
system.caches.controllers1.responseFromDir.m_buf_msgs     0.018540                       # Average number of messages in buffer (Unspecified)
system.caches.controllers1.responseFromDir.m_stall_time   999.996755                       # Average number of cycles messages are stalled in this MB (Unspecified)
system.caches.controllers1.responseFromMemory.m_buf_msgs     0.042561                       # Average number of messages in buffer (Unspecified)
system.caches.controllers1.responseFromMemory.m_stall_time   999.996802                       # Average number of cycles messages are stalled in this MB (Unspecified)
system.caches.network.msg_count.Control        788348                       (Unspecified)
system.caches.network.msg_byte.Control        6306784                       (Unspecified)
system.caches.network.msg_count.Data           788284                       (Unspecified)
system.caches.network.msg_byte.Data          56756448                       (Unspecified)
system.caches.network.msg_count.Response_Data       788346                       (Unspecified)
system.caches.network.msg_byte.Response_Data     56760912                       (Unspecified)
system.caches.network.msg_count.Writeback_Control       788284                       (Unspecified)
system.caches.network.msg_byte.Writeback_Control      6306272                       (Unspecified)
system.caches.network.int_link_buffers2.m_buf_msgs     0.021783                       # Average number of messages in buffer (Unspecified)
system.caches.network.int_link_buffers2.m_stall_time  7825.737341                       # Average number of cycles messages are stalled in this MB (Unspecified)
system.caches.network.int_link_buffers8.m_buf_msgs     0.010891                       # Average number of messages in buffer (Unspecified)
system.caches.network.int_link_buffers8.m_stall_time         3000                       # Average number of cycles messages are stalled in this MB (Unspecified)
system.caches.network.int_link_buffers9.m_buf_msgs     0.010891                       # Average number of messages in buffer (Unspecified)
system.caches.network.int_link_buffers9.m_stall_time         3000                       # Average number of cycles messages are stalled in this MB (Unspecified)
system.caches.network.power_state.pwrStateResidencyTicks::UNDEFINED  21260824000                       # Cumulative time (in ticks) in various power states (Tick)
system.caches.network.routers0.percent_links_utilized     5.445671                       (Unspecified)
system.caches.network.routers0.msg_count.Control::2       394174                       (Unspecified)
system.caches.network.routers0.msg_bytes.Control::2      3153392                       (Unspecified)
system.caches.network.routers0.msg_count.Data::2       394142                       (Unspecified)
system.caches.network.routers0.msg_bytes.Data::2     28378224                       (Unspecified)
system.caches.network.routers0.msg_count.Response_Data::4       394173                       (Unspecified)
system.caches.network.routers0.msg_bytes.Response_Data::4     28380456                       (Unspecified)
system.caches.network.routers0.msg_count.Writeback_Control::3       394142                       (Unspecified)
system.caches.network.routers0.msg_bytes.Writeback_Control::3      3153136                       (Unspecified)
system.caches.network.routers0.port_buffers3.m_buf_msgs     0.018538                       # Average number of messages in buffer (Unspecified)
system.caches.network.routers0.port_buffers3.m_stall_time  4108.351445                       # Average number of cycles messages are stalled in this MB (Unspecified)
system.caches.network.routers0.port_buffers4.m_buf_msgs     0.018540                       # Average number of messages in buffer (Unspecified)
system.caches.network.routers0.port_buffers4.m_stall_time  4016.409618                       # Average number of cycles messages are stalled in this MB (Unspecified)
system.caches.network.routers0.port_buffers7.m_buf_msgs     0.143839                       # Average number of messages in buffer (Unspecified)
system.caches.network.routers0.port_buffers7.m_stall_time  7222.380327                       # Average number of cycles messages are stalled in this MB (Unspecified)
system.caches.network.routers0.power_state.pwrStateResidencyTicks::UNDEFINED  21260824000                       # Cumulative time (in ticks) in various power states (Tick)
system.caches.network.routers0.throttle00.link_utilization     5.445642                       (Unspecified)
system.caches.network.routers0.throttle00.msg_count.Response_Data::4       394173                       (Unspecified)
system.caches.network.routers0.throttle00.msg_bytes.Response_Data::4     28380456                       (Unspecified)
system.caches.network.routers0.throttle00.msg_count.Writeback_Control::3       394142                       (Unspecified)
system.caches.network.routers0.throttle00.msg_bytes.Writeback_Control::3      3153136                       (Unspecified)
system.caches.network.routers0.throttle01.link_utilization     5.445700                       (Unspecified)
system.caches.network.routers0.throttle01.msg_count.Control::2       394174                       (Unspecified)
system.caches.network.routers0.throttle01.msg_bytes.Control::2      3153392                       (Unspecified)
system.caches.network.routers0.throttle01.msg_count.Data::2       394142                       (Unspecified)
system.caches.network.routers0.throttle01.msg_bytes.Data::2     28378224                       (Unspecified)
system.caches.network.routers1.percent_links_utilized     5.445683                       (Unspecified)
system.caches.network.routers1.msg_count.Control::2       394174                       (Unspecified)
system.caches.network.routers1.msg_bytes.Control::2      3153392                       (Unspecified)
system.caches.network.routers1.msg_count.Data::2       394142                       (Unspecified)
system.caches.network.routers1.msg_bytes.Data::2     28378224                       (Unspecified)
system.caches.network.routers1.msg_count.Response_Data::4       394173                       (Unspecified)
system.caches.network.routers1.msg_bytes.Response_Data::4     28380456                       (Unspecified)
system.caches.network.routers1.msg_count.Writeback_Control::3       394142                       (Unspecified)
system.caches.network.routers1.msg_bytes.Writeback_Control::3      3153136                       (Unspecified)
system.caches.network.routers1.port_buffers2.m_buf_msgs     0.037078                       # Average number of messages in buffer (Unspecified)
system.caches.network.routers1.port_buffers2.m_stall_time  9222.379104                       # Average number of cycles messages are stalled in this MB (Unspecified)
system.caches.network.routers1.port_buffers6.m_buf_msgs     0.023016                       # Average number of messages in buffer (Unspecified)
system.caches.network.routers1.port_buffers6.m_stall_time  2108.430840                       # Average number of cycles messages are stalled in this MB (Unspecified)
system.caches.network.routers1.port_buffers7.m_buf_msgs     0.019108                       # Average number of messages in buffer (Unspecified)
system.caches.network.routers1.port_buffers7.m_stall_time  2016.416579                       # Average number of cycles messages are stalled in this MB (Unspecified)
system.caches.network.routers1.power_state.pwrStateResidencyTicks::UNDEFINED  21260824000                       # Cumulative time (in ticks) in various power states (Tick)
system.caches.network.routers1.throttle00.link_utilization     5.445708                       (Unspecified)
system.caches.network.routers1.throttle00.msg_count.Control::2       394174                       (Unspecified)
system.caches.network.routers1.throttle00.msg_bytes.Control::2      3153392                       (Unspecified)
system.caches.network.routers1.throttle00.msg_count.Data::2       394142                       (Unspecified)
system.caches.network.routers1.throttle00.msg_bytes.Data::2     28378224                       (Unspecified)
system.caches.network.routers1.throttle01.link_utilization     5.445658                       (Unspecified)
system.caches.network.routers1.throttle01.msg_count.Response_Data::4       394173                       (Unspecified)
system.caches.network.routers1.throttle01.msg_bytes.Response_Data::4     28380456                       (Unspecified)
system.caches.network.routers1.throttle01.msg_count.Writeback_Control::3       394142                       (Unspecified)
system.caches.network.routers1.throttle01.msg_bytes.Writeback_Control::3      3153136                       (Unspecified)
system.caches.power_state.pwrStateResidencyTicks::UNDEFINED  21260824000                       # Cumulative time (in ticks) in various power states (Tick)
system.caches.sequencers.power_state.pwrStateResidencyTicks::UNDEFINED  21260824000                       # Cumulative time (in ticks) in various power states (Tick)
system.caches.sys_port_proxy.power_state.pwrStateResidencyTicks::UNDEFINED  21260824000                       # Cumulative time (in ticks) in various power states (Tick)
system.clk_domain.clock                          1000                       # Clock period in ticks (Tick)
system.clk_domain.voltage_domain.voltage            1                       # Voltage in Volts (Volt)
system.cpu.numCycles                         12035074                       # Number of cpu cycles simulated (Cycle)
system.cpu.numWorkItemsStarted                      0                       # Number of work items this cpu started (Count)
system.cpu.numWorkItemsCompleted                    0                       # Number of work items this cpu completed (Count)
system.cpu.instsAdded                         8388626                       # Number of instructions added to the IQ (excludes non-spec) (Count)
system.cpu.nonSpecInstsAdded                        1                       # Number of non-speculative instructions added to the IQ (Count)
system.cpu.instsIssued                        8388629                       # Number of instructions issued (Count)
system.cpu.squashedInstsExamined                    3                       # Number of squashed instructions iterated over during squash; mainly for profiling (Count)
system.cpu.numIssuedDist::samples            12034985                       # Number of insts issued each cycle (Count)
system.cpu.numIssuedDist::mean               0.697020                       # Number of insts issued each cycle (Count)
system.cpu.numIssuedDist::stdev              1.286888                       # Number of insts issued each cycle (Count)
system.cpu.numIssuedDist::underflows                0      0.00%      0.00% # Number of insts issued each cycle (Count)
system.cpu.numIssuedDist::0                   8408679     69.87%     69.87% # Number of insts issued each cycle (Count)
system.cpu.numIssuedDist::1                   1354407     11.25%     81.12% # Number of insts issued each cycle (Count)
system.cpu.numIssuedDist::2                    961178      7.99%     89.11% # Number of insts issued each cycle (Count)
system.cpu.numIssuedDist::3                    393208      3.27%     92.38% # Number of insts issued each cycle (Count)
system.cpu.numIssuedDist::4                    655347      5.45%     97.82% # Number of insts issued each cycle (Count)
system.cpu.numIssuedDist::5                    262142      2.18%    100.00% # Number of insts issued each cycle (Count)
system.cpu.numIssuedDist::6                        24      0.00%    100.00% # Number of insts issued each cycle (Count)
system.cpu.numIssuedDist::7                         0      0.00%    100.00% # Number of insts issued each cycle (Count)
system.cpu.numIssuedDist::8                         0      0.00%    100.00% # Number of insts issued each cycle (Count)
system.cpu.numIssuedDist::overflows                 0      0.00%    100.00% # Number of insts issued each cycle (Count)
system.cpu.numIssuedDist::min_value                 0                       # Number of insts issued each cycle (Count)
system.cpu.numIssuedDist::max_value                 6                       # Number of insts issued each cycle (Count)
system.cpu.numIssuedDist::total              12034985                       # Number of insts issued each cycle (Count)
system.cpu.statFuBusy::No_OpClass                   0      0.00%      0.00% # attempts to use FU when none available (Count)
system.cpu.statFuBusy::IntAlu                      23    100.00%    100.00% # attempts to use FU when none available (Count)
system.cpu.statFuBusy::IntMult                      0      0.00%    100.00% # attempts to use FU when none available (Count)
system.cpu.statFuBusy::IntDiv                       0      0.00%    100.00% # attempts to use FU when none available (Count)
system.cpu.statFuBusy::FloatAdd                     0      0.00%    100.00% # attempts to use FU when none available (Count)
system.cpu.statFuBusy::FloatCmp                     0      0.00%    100.00% # attempts to use FU when none available (Count)
system.cpu.statFuBusy::FloatCvt                     0      0.00%    100.00% # attempts to use FU when none available (Count)
system.cpu.statFuBusy::FloatMult                    0      0.00%    100.00% # attempts to use FU when none available (Count)
system.cpu.statFuBusy::FloatMultAcc                 0      0.00%    100.00% # attempts to use FU when none available (Count)
system.cpu.statFuBusy::FloatDiv                     0      0.00%    100.00% # attempts to use FU when none available (Count)
system.cpu.statFuBusy::FloatMisc                    0      0.00%    100.00% # attempts to use FU when none available (Count)
system.cpu.statFuBusy::FloatSqrt                    0      0.00%    100.00% # attempts to use FU when none available (Count)
system.cpu.statFuBusy::SimdAdd                      0      0.00%    100.00% # attempts to use FU when none available (Count)
system.cpu.statFuBusy::SimdAddAcc                   0      0.00%    100.00% # attempts to use FU when none available (Count)
system.cpu.statFuBusy::SimdAlu                      0      0.00%    100.00% # attempts to use FU when none available (Count)
system.cpu.statFuBusy::SimdCmp                      0      0.00%    100.00% # attempts to use FU when none available (Count)
system.cpu.statFuBusy::SimdCvt                      0      0.00%    100.00% # attempts to use FU when none available (Count)
system.cpu.statFuBusy::SimdMisc                     0      0.00%    100.00% # attempts to use FU when none available (Count)
system.cpu.statFuBusy::SimdMult                     0      0.00%    100.00% # attempts to use FU when none available (Count)
system.cpu.statFuBusy::SimdMultAcc                  0      0.00%    100.00% # attempts to use FU when none available (Count)
system.cpu.statFuBusy::SimdShift                    0      0.00%    100.00% # attempts to use FU when none available (Count)
system.cpu.statFuBusy::SimdShiftAcc                 0      0.00%    100.00% # attempts to use FU when none available (Count)
system.cpu.statFuBusy::SimdDiv                      0      0.00%    100.00% # attempts to use FU when none available (Count)
system.cpu.statFuBusy::SimdSqrt                     0      0.00%    100.00% # attempts to use FU when none available (Count)
system.cpu.statFuBusy::SimdFloatAdd                 0      0.00%    100.00% # attempts to use FU when none available (Count)
system.cpu.statFuBusy::SimdFloatAlu                 0      0.00%    100.00% # attempts to use FU when none available (Count)
system.cpu.statFuBusy::SimdFloatCmp                 0      0.00%    100.00% # attempts to use FU when none available (Count)
system.cpu.statFuBusy::SimdFloatCvt                 0      0.00%    100.00% # attempts to use FU when none available (Count)
system.cpu.statFuBusy::SimdFloatDiv                 0      0.00%    100.00% # attempts to use FU when none available (Count)
system.cpu.statFuBusy::SimdFloatMisc                0      0.00%    100.00% # attempts to use FU when none available (Count)
system.cpu.statFuBusy::SimdFloatMult                0      0.00%    100.00% # attempts to use FU when none available (Count)
system.cpu.statFuBusy::SimdFloatMultAcc             0      0.00%    100.00% # attempts to use FU when none available (Count)
system.cpu.statFuBusy::SimdFloatSqrt                0      0.00%    100.00% # attempts to use FU when none available (Count)
system.cpu.statFuBusy::SimdReduceAdd                0      0.00%    100.00% # attempts to use FU when none available (Count)
system.cpu.statFuBusy::SimdReduceAlu                0      0.00%    100.00% # attempts to use FU when none available (Count)
system.cpu.statFuBusy::SimdReduceCmp                0      0.00%    100.00% # attempts to use FU when none available (Count)
system.cpu.statFuBusy::SimdFloatReduceAdd            0      0.00%    100.00% # attempts to use FU when none available (Count)
system.cpu.statFuBusy::SimdFloatReduceCmp            0      0.00%    100.00% # attempts to use FU when none available (Count)
system.cpu.statFuBusy::SimdAes                      0      0.00%    100.00% # attempts to use FU when none available (Count)
system.cpu.statFuBusy::SimdAesMix                   0      0.00%    100.00% # attempts to use FU when none available (Count)
system.cpu.statFuBusy::SimdSha1Hash                 0      0.00%    100.00% # attempts to use FU when none available (Count)
system.cpu.statFuBusy::SimdSha1Hash2                0      0.00%    100.00% # attempts to use FU when none available (Count)
system.cpu.statFuBusy::SimdSha256Hash               0      0.00%    100.00% # attempts to use FU when none available (Count)
system.cpu.statFuBusy::SimdSha256Hash2              0      0.00%    100.00% # attempts to use FU when none available (Count)
system.cpu.statFuBusy::SimdShaSigma2                0      0.00%    100.00% # attempts to use FU when none available (Count)
system.cpu.statFuBusy::SimdShaSigma3                0      0.00%    100.00% # attempts to use FU when none available (Count)
system.cpu.statFuBusy::SimdPredAlu                  0      0.00%    100.00% # attempts to use FU when none available (Count)
system.cpu.statFuBusy::MemRead                      0      0.00%    100.00% # attempts to use FU when none available (Count)
system.cpu.statFuBusy::MemWrite                     0      0.00%    100.00% # attempts to use FU when none available (Count)
system.cpu.statFuBusy::FloatMemRead                 0      0.00%    100.00% # attempts to use FU when none available (Count)
system.cpu.statFuBusy::FloatMemWrite                0      0.00%    100.00% # attempts to use FU when none available (Count)
system.cpu.statFuBusy::IprAccess                    0      0.00%    100.00% # attempts to use FU when none available (Count)
system.cpu.statFuBusy::InstPrefetch                 0      0.00%    100.00% # attempts to use FU when none available (Count)
system.cpu.statIssuedInstType_0::No_OpClass            0      0.00%      0.00% # Number of instructions issued per FU type, per thread (Count)
system.cpu.statIssuedInstType_0::IntAlu       7340049     87.50%     87.50% # Number of instructions issued per FU type, per thread (Count)
system.cpu.statIssuedInstType_0::IntMult            0      0.00%     87.50% # Number of instructions issued per FU type, per thread (Count)
system.cpu.statIssuedInstType_0::IntDiv             0      0.00%     87.50% # Number of instructions issued per FU type, per thread (Count)
system.cpu.statIssuedInstType_0::FloatAdd            0      0.00%     87.50% # Number of instructions issued per FU type, per thread (Count)
system.cpu.statIssuedInstType_0::FloatCmp            0      0.00%     87.50% # Number of instructions issued per FU type, per thread (Count)
system.cpu.statIssuedInstType_0::FloatCvt            0      0.00%     87.50% # Number of instructions issued per FU type, per thread (Count)
system.cpu.statIssuedInstType_0::FloatMult            0      0.00%     87.50% # Number of instructions issued per FU type, per thread (Count)
system.cpu.statIssuedInstType_0::FloatMultAcc            0      0.00%     87.50% # Number of instructions issued per FU type, per thread (Count)
system.cpu.statIssuedInstType_0::FloatDiv            0      0.00%     87.50% # Number of instructions issued per FU type, per thread (Count)
system.cpu.statIssuedInstType_0::FloatMisc            0      0.00%     87.50% # Number of instructions issued per FU type, per thread (Count)
system.cpu.statIssuedInstType_0::FloatSqrt            0      0.00%     87.50% # Number of instructions issued per FU type, per thread (Count)
system.cpu.statIssuedInstType_0::SimdAdd            0      0.00%     87.50% # Number of instructions issued per FU type, per thread (Count)
system.cpu.statIssuedInstType_0::SimdAddAcc            0      0.00%     87.50% # Number of instructions issued per FU type, per thread (Count)
system.cpu.statIssuedInstType_0::SimdAlu            0      0.00%     87.50% # Number of instructions issued per FU type, per thread (Count)
system.cpu.statIssuedInstType_0::SimdCmp            0      0.00%     87.50% # Number of instructions issued per FU type, per thread (Count)
system.cpu.statIssuedInstType_0::SimdCvt            0      0.00%     87.50% # Number of instructions issued per FU type, per thread (Count)
system.cpu.statIssuedInstType_0::SimdMisc            0      0.00%     87.50% # Number of instructions issued per FU type, per thread (Count)
system.cpu.statIssuedInstType_0::SimdMult            0      0.00%     87.50% # Number of instructions issued per FU type, per thread (Count)
system.cpu.statIssuedInstType_0::SimdMultAcc            0      0.00%     87.50% # Number of instructions issued per FU type, per thread (Count)
system.cpu.statIssuedInstType_0::SimdShift            0      0.00%     87.50% # Number of instructions issued per FU type, per thread (Count)
system.cpu.statIssuedInstType_0::SimdShiftAcc            0      0.00%     87.50% # Number of instructions issued per FU type, per thread (Count)
system.cpu.statIssuedInstType_0::SimdDiv            0      0.00%     87.50% # Number of instructions issued per FU type, per thread (Count)
system.cpu.statIssuedInstType_0::SimdSqrt            0      0.00%     87.50% # Number of instructions issued per FU type, per thread (Count)
system.cpu.statIssuedInstType_0::SimdFloatAdd            0      0.00%     87.50% # Number of instructions issued per FU type, per thread (Count)
system.cpu.statIssuedInstType_0::SimdFloatAlu            0      0.00%     87.50% # Number of instructions issued per FU type, per thread (Count)
system.cpu.statIssuedInstType_0::SimdFloatCmp            0      0.00%     87.50% # Number of instructions issued per FU type, per thread (Count)
system.cpu.statIssuedInstType_0::SimdFloatCvt            0      0.00%     87.50% # Number of instructions issued per FU type, per thread (Count)
system.cpu.statIssuedInstType_0::SimdFloatDiv            0      0.00%     87.50% # Number of instructions issued per FU type, per thread (Count)
system.cpu.statIssuedInstType_0::SimdFloatMisc            0      0.00%     87.50% # Number of instructions issued per FU type, per thread (Count)
system.cpu.statIssuedInstType_0::SimdFloatMult            0      0.00%     87.50% # Number of instructions issued per FU type, per thread (Count)
system.cpu.statIssuedInstType_0::SimdFloatMultAcc            0      0.00%     87.50% # Number of instructions issued per FU type, per thread (Count)
system.cpu.statIssuedInstType_0::SimdFloatSqrt            0      0.00%     87.50% # Number of instructions issued per FU type, per thread (Count)
system.cpu.statIssuedInstType_0::SimdReduceAdd            0      0.00%     87.50% # Number of instructions issued per FU type, per thread (Count)
system.cpu.statIssuedInstType_0::SimdReduceAlu            0      0.00%     87.50% # Number of instructions issued per FU type, per thread (Count)
system.cpu.statIssuedInstType_0::SimdReduceCmp            0      0.00%     87.50% # Number of instructions issued per FU type, per thread (Count)
system.cpu.statIssuedInstType_0::SimdFloatReduceAdd            0      0.00%     87.50% # Number of instructions issued per FU type, per thread (Count)
system.cpu.statIssuedInstType_0::SimdFloatReduceCmp            0      0.00%     87.50% # Number of instructions issued per FU type, per thread (Count)
system.cpu.statIssuedInstType_0::SimdAes            0      0.00%     87.50% # Number of instructions issued per FU type, per thread (Count)
system.cpu.statIssuedInstType_0::SimdAesMix            0      0.00%     87.50% # Number of instructions issued per FU type, per thread (Count)
system.cpu.statIssuedInstType_0::SimdSha1Hash            0      0.00%     87.50% # Number of instructions issued per FU type, per thread (Count)
system.cpu.statIssuedInstType_0::SimdSha1Hash2            0      0.00%     87.50% # Number of instructions issued per FU type, per thread (Count)
system.cpu.statIssuedInstType_0::SimdSha256Hash            0      0.00%     87.50% # Number of instructions issued per FU type, per thread (Count)
system.cpu.statIssuedInstType_0::SimdSha256Hash2            0      0.00%     87.50% # Number of instructions issued per FU type, per thread (Count)
system.cpu.statIssuedInstType_0::SimdShaSigma2            0      0.00%     87.50% # Number of instructions issued per FU type, per thread (Count)
system.cpu.statIssuedInstType_0::SimdShaSigma3            0      0.00%     87.50% # Number of instructions issued per FU type, per thread (Count)
system.cpu.statIssuedInstType_0::SimdPredAlu            0      0.00%     87.50% # Number of instructions issued per FU type, per thread (Count)
system.cpu.statIssuedInstType_0::MemRead      1048577     12.50%    100.00% # Number of instructions issued per FU type, per thread (Count)
system.cpu.statIssuedInstType_0::MemWrite            3      0.00%    100.00% # Number of instructions issued per FU type, per thread (Count)
system.cpu.statIssuedInstType_0::FloatMemRead            0      0.00%    100.00% # Number of instructions issued per FU type, per thread (Count)
system.cpu.statIssuedInstType_0::FloatMemWrite            0      0.00%    100.00% # Number of instructions issued per FU type, per thread (Count)
system.cpu.statIssuedInstType_0::IprAccess            0      0.00%    100.00% # Number of instructions issued per FU type, per thread (Count)
system.cpu.statIssuedInstType_0::InstPrefetch            0      0.00%    100.00% # Number of instructions issued per FU type, per thread (Count)
system.cpu.statIssuedInstType_0::total        8388629                       # Number of instructions issued per FU type, per thread (Count)
system.cpu.issueRate                         0.697015                       # Inst issue rate ((Count/Cycle))
system.cpu.fuBusy                                  23                       # FU busy when requested (Count)
system.cpu.fuBusyRate                        0.000003                       # FU busy rate (busy events/executed inst) ((Count/Count))
system.cpu.intInstQueueReads                 28812273                       # Number of integer instruction queue reads (Count)
system.cpu.intInstQueueWrites                 8388630                       # Number of integer instruction queue writes (Count)
system.cpu.intInstQueueWakeupAccesses         8388635                       # Number of integer instruction queue wakeup accesses (Count)
system.cpu.fpInstQueueReads                         0                       # Number of floating instruction queue reads (Count)
system.cpu.fpInstQueueWrites                        0                       # Number of floating instruction queue writes (Count)
system.cpu.fpInstQueueWakeupAccesses                0                       # Number of floating instruction queue wakeup accesses (Count)
system.cpu.vecInstQueueReads                        0                       # Number of vector instruction queue reads (Count)
system.cpu.vecInstQueueWrites                       0                       # Number of vector instruction queue writes (Count)
system.cpu.vecInstQueueWakeupAccesses               0                       # Number of vector instruction queue wakeup accesses (Count)
system.cpu.intAluAccesses                     8388652                       # Number of integer alu accesses (Count)
system.cpu.fpAluAccesses                            0                       # Number of floating point alu accesses (Count)
system.cpu.vecAluAccesses                           0                       # Number of vector alu accesses (Count)
system.cpu.idleCycles                               0                       # Number of cycles IEW is idle (Cycle)
system.cpu.squashCycles                             2                       # Number of cycles IEW is squashing (Cycle)
system.cpu.blockCycles                              0                       # Number of cycles IEW is blocking (Cycle)
system.cpu.unblockCycles                            0                       # Number of cycles IEW is unblocking (Cycle)
system.cpu.dispatchedInsts                    8388627                       # Number of instructions dispatched to IQ (Count)
system.cpu.dispSquashedInsts                        0                       # Number of squashed instructions skipped by dispatch (Count)
system.cpu.dispLoadInsts                      1048577                       # Number of dispatched load instructions (Count)
system.cpu.dispStoreInsts                           3                       # Number of dispatched store instructions (Count)
system.cpu.dispNonSpecInsts                         1                       # Number of dispatched non-speculative instructions (Count)
system.cpu.iqFullEvents                             0                       # Number of times the IQ has become full, causing a stall (Count)
system.cpu.lsqFullEvents                            0                       # Number of times the LSQ has become full, causing a stall (Count)
system.cpu.memOrderViolationEvents                  0                       # Number of memory order violations (Count)
system.cpu.predictedTakenIncorrect                  1                       # Number of branches that were predicted taken incorrectly (Count)
system.cpu.predictedNotTakenIncorrect               1                       # Number of branches that were predicted not taken incorrectly (Count)
system.cpu.branchMispredicts                        2                       # Number of branch mispredicts detected at execute (Count)
system.cpu.numInsts                           8388636                       # Number of executed instructions (Count)
system.cpu.numLoadInsts                       1048578                       # Number of load instructions executed (Count)
system.cpu.numSquashedInsts                         0                       # Number of squashed instructions skipped in execute (Count)
system.cpu.numSwp                                   0                       # Number of swp insts executed (Count)
system.cpu.numNop                                   0                       # Number of nop insts executed (Count)
system.cpu.numRefs                            1048581                       # Number of memory reference insts executed (Count)
system.cpu.numBranches                        1048582                       # Number of branches executed (Count)
system.cpu.numStoreInsts                            3                       # Number of stores executed (Count)
system.cpu.numRate                           0.697016                       # Inst execution rate ((Count/Cycle))
system.cpu.instsToCommit                      8388635                       # Cumulative count of insts sent to commit (Count)
system.cpu.writebackCount                     8388635                       # Cumulative count of insts written-back (Count)
system.cpu.producerInst                       7165281                       # Number of instructions producing a value (Count)
system.cpu.consumerInst                       8519711                       # Number of instructions consuming a value (Count)
system.cpu.wbRate                            0.697016                       # Insts written-back per cycle ((Count/Cycle))
system.cpu.wbFanout                          0.841024                       # Average fanout of values written-back ((Count/Count))
system.cpu.timesIdled                               4                       # Number of times that the entire CPU went into an idle state and unscheduled itself (Count)
system.cpu.idleCycles                              89                       # Total number of cycles that the CPU has spent unscheduled due to idling (Cycle)
system.cpu.committedInsts                     4194313                       # Number of Instructions Simulated (Count)
system.cpu.committedOps                       8388625                       # Number of Ops (including micro ops) Simulated (Count)
system.cpu.cpi                               2.869379                       # CPI: Cycles Per Instruction ((Cycle/Count))
system.cpu.totalCpi                          2.869379                       # CPI: Total CPI of All Threads ((Cycle/Count))
system.cpu.ipc                               0.348507                       # IPC: Instructions Per Cycle ((Count/Cycle))
system.cpu.totalIpc                          0.348507                       # IPC: Total IPC of All Threads ((Count/Cycle))
system.cpu.intRegfileReads                    8388645                       # Number of integer regfile reads (Count)
system.cpu.intRegfileWrites                   7340049                       # Number of integer regfile writes (Count)
system.cpu.ccRegfileReads                     5242888                       # number of cc regfile reads (Count)
system.cpu.ccRegfileWrites                    4194312                       # number of cc regfile writes (Count)
system.cpu.miscRegfileReads                   3145743                       # number of misc regfile reads (Count)
system.cpu.MemDepUnit__0.insertedLoads        1048577                       # Number of loads inserted to the mem dependence unit. (Count)
system.cpu.MemDepUnit__0.insertedStores             3                       # Number of stores inserted to the mem dependence unit. (Count)
system.cpu.MemDepUnit__0.conflictingLoads            0                       # Number of conflicting loads. (Count)
system.cpu.MemDepUnit__0.conflictingStores            0                       # Number of conflicting stores. (Count)
system.cpu.MemDepUnit__1.insertedLoads              0                       # Number of loads inserted to the mem dependence unit. (Count)
system.cpu.MemDepUnit__1.insertedStores             0                       # Number of stores inserted to the mem dependence unit. (Count)
system.cpu.MemDepUnit__1.conflictingLoads            0                       # Number of conflicting loads. (Count)
system.cpu.MemDepUnit__1.conflictingStores            0                       # Number of conflicting stores. (Count)
system.cpu.MemDepUnit__2.insertedLoads              0                       # Number of loads inserted to the mem dependence unit. (Count)
system.cpu.MemDepUnit__2.insertedStores             0                       # Number of stores inserted to the mem dependence unit. (Count)
system.cpu.MemDepUnit__2.conflictingLoads            0                       # Number of conflicting loads. (Count)
system.cpu.MemDepUnit__2.conflictingStores            0                       # Number of conflicting stores. (Count)
system.cpu.MemDepUnit__3.insertedLoads              0                       # Number of loads inserted to the mem dependence unit. (Count)
system.cpu.MemDepUnit__3.insertedStores             0                       # Number of stores inserted to the mem dependence unit. (Count)
system.cpu.MemDepUnit__3.conflictingLoads            0                       # Number of conflicting loads. (Count)
system.cpu.MemDepUnit__3.conflictingStores            0                       # Number of conflicting stores. (Count)
system.cpu.branchPred.lookups                 1048587                       # Number of BP lookups (Count)
system.cpu.branchPred.condPredicted           1048581                       # Number of conditional branches predicted (Count)
system.cpu.branchPred.condIncorrect                 4                       # Number of conditional branches incorrect (Count)
system.cpu.branchPred.BTBLookups              1048585                       # Number of BTB lookups (Count)
system.cpu.branchPred.BTBHits                 1048582                       # Number of BTB hits (Count)
system.cpu.branchPred.BTBHitRatio            0.999997                       # BTB Hit Ratio (Ratio)
system.cpu.branchPred.RASUsed                       1                       # Number of times the RAS was used to get a target. (Count)
system.cpu.branchPred.RASIncorrect                  0                       # Number of incorrect RAS predictions. (Count)
system.cpu.branchPred.indirectLookups               1                       # Number of indirect predictor lookups. (Count)
system.cpu.branchPred.indirectHits                  0                       # Number of indirect target hits. (Count)
system.cpu.branchPred.indirectMisses                1                       # Number of indirect misses. (Count)
system.cpu.branchPred.indirectMispredicted            0                       # Number of mispredicted indirect branches. (Count)
system.cpu.commit.commitSquashedInsts               3                       # The number of squashed insts skipped by commit (Count)
system.cpu.commit.commitNonSpecStalls               1                       # The number of times commit has been forced to stall to communicate backwards (Count)
system.cpu.commit.branchMispredicts                 2                       # The number of times a branch was mispredicted (Count)
system.cpu.commit.numCommittedDist::samples     12034983                       # Number of insts commited each cycle (Count)
system.cpu.commit.numCommittedDist::mean     0.697020                       # Number of insts commited each cycle (Count)
system.cpu.commit.numCommittedDist::stdev     2.256174                       # Number of insts commited each cycle (Count)
system.cpu.commit.numCommittedDist::underflows            0      0.00%      0.00% # Number of insts commited each cycle (Count)
system.cpu.commit.numCommittedDist::0        10986403     91.29%     91.29% # Number of insts commited each cycle (Count)
system.cpu.commit.numCommittedDist::1               1      0.00%     91.29% # Number of insts commited each cycle (Count)
system.cpu.commit.numCommittedDist::2               0      0.00%     91.29% # Number of insts commited each cycle (Count)
system.cpu.commit.numCommittedDist::3               1      0.00%     91.29% # Number of insts commited each cycle (Count)
system.cpu.commit.numCommittedDist::4               0      0.00%     91.29% # Number of insts commited each cycle (Count)
system.cpu.commit.numCommittedDist::5               1      0.00%     91.29% # Number of insts commited each cycle (Count)
system.cpu.commit.numCommittedDist::6               0      0.00%     91.29% # Number of insts commited each cycle (Count)
system.cpu.commit.numCommittedDist::7               0      0.00%     91.29% # Number of insts commited each cycle (Count)
system.cpu.commit.numCommittedDist::8         1048577      8.71%    100.00% # Number of insts commited each cycle (Count)
system.cpu.commit.numCommittedDist::overflows            0      0.00%    100.00% # Number of insts commited each cycle (Count)
system.cpu.commit.numCommittedDist::min_value            0                       # Number of insts commited each cycle (Count)
system.cpu.commit.numCommittedDist::max_value            8                       # Number of insts commited each cycle (Count)
system.cpu.commit.numCommittedDist::total     12034983                       # Number of insts commited each cycle (Count)
system.cpu.commit.instsCommitted              4194313                       # Number of instructions committed (Count)
system.cpu.commit.opsCommitted                8388625                       # Number of ops (including micro ops) committed (Count)
system.cpu.commit.memRefs                     1048578                       # Number of memory references committed (Count)
system.cpu.commit.loads                       1048577                       # Number of loads committed (Count)
system.cpu.commit.amos                              0                       # Number of atomic instructions committed (Count)
system.cpu.commit.membars                           0                       # Number of memory barriers committed (Count)
system.cpu.commit.branches                    1048579                       # Number of branches committed (Count)
system.cpu.commit.vectorInstructions                0                       # Number of committed Vector instructions. (Count)
system.cpu.commit.floating                          0                       # Number of committed floating point instructions. (Count)
system.cpu.commit.integer                     8388623                       # Number of committed integer instructions. (Count)
system.cpu.commit.functionCalls                     1                       # Number of function calls committed. (Count)
system.cpu.commit.committedInstType_0::No_OpClass            1      0.00%      0.00% # Class of committed instruction (Count)
system.cpu.commit.committedInstType_0::IntAlu      7340046     87.50%     87.50% # Class of committed instruction (Count)
system.cpu.commit.committedInstType_0::IntMult            0      0.00%     87.50% # Class of committed instruction (Count)
system.cpu.commit.committedInstType_0::IntDiv            0      0.00%     87.50% # Class of committed instruction (Count)
system.cpu.commit.committedInstType_0::FloatAdd            0      0.00%     87.50% # Class of committed instruction (Count)
system.cpu.commit.committedInstType_0::FloatCmp            0      0.00%     87.50% # Class of committed instruction (Count)
system.cpu.commit.committedInstType_0::FloatCvt            0      0.00%     87.50% # Class of committed instruction (Count)
system.cpu.commit.committedInstType_0::FloatMult            0      0.00%     87.50% # Class of committed instruction (Count)
system.cpu.commit.committedInstType_0::FloatMultAcc            0      0.00%     87.50% # Class of committed instruction (Count)
system.cpu.commit.committedInstType_0::FloatDiv            0      0.00%     87.50% # Class of committed instruction (Count)
system.cpu.commit.committedInstType_0::FloatMisc            0      0.00%     87.50% # Class of committed instruction (Count)
system.cpu.commit.committedInstType_0::FloatSqrt            0      0.00%     87.50% # Class of committed instruction (Count)
system.cpu.commit.committedInstType_0::SimdAdd            0      0.00%     87.50% # Class of committed instruction (Count)
system.cpu.commit.committedInstType_0::SimdAddAcc            0      0.00%     87.50% # Class of committed instruction (Count)
system.cpu.commit.committedInstType_0::SimdAlu            0      0.00%     87.50% # Class of committed instruction (Count)
system.cpu.commit.committedInstType_0::SimdCmp            0      0.00%     87.50% # Class of committed instruction (Count)
system.cpu.commit.committedInstType_0::SimdCvt            0      0.00%     87.50% # Class of committed instruction (Count)
system.cpu.commit.committedInstType_0::SimdMisc            0      0.00%     87.50% # Class of committed instruction (Count)
system.cpu.commit.committedInstType_0::SimdMult            0      0.00%     87.50% # Class of committed instruction (Count)
system.cpu.commit.committedInstType_0::SimdMultAcc            0      0.00%     87.50% # Class of committed instruction (Count)
system.cpu.commit.committedInstType_0::SimdShift            0      0.00%     87.50% # Class of committed instruction (Count)
system.cpu.commit.committedInstType_0::SimdShiftAcc            0      0.00%     87.50% # Class of committed instruction (Count)
system.cpu.commit.committedInstType_0::SimdDiv            0      0.00%     87.50% # Class of committed instruction (Count)
system.cpu.commit.committedInstType_0::SimdSqrt            0      0.00%     87.50% # Class of committed instruction (Count)
system.cpu.commit.committedInstType_0::SimdFloatAdd            0      0.00%     87.50% # Class of committed instruction (Count)
system.cpu.commit.committedInstType_0::SimdFloatAlu            0      0.00%     87.50% # Class of committed instruction (Count)
system.cpu.commit.committedInstType_0::SimdFloatCmp            0      0.00%     87.50% # Class of committed instruction (Count)
system.cpu.commit.committedInstType_0::SimdFloatCvt            0      0.00%     87.50% # Class of committed instruction (Count)
system.cpu.commit.committedInstType_0::SimdFloatDiv            0      0.00%     87.50% # Class of committed instruction (Count)
system.cpu.commit.committedInstType_0::SimdFloatMisc            0      0.00%     87.50% # Class of committed instruction (Count)
system.cpu.commit.committedInstType_0::SimdFloatMult            0      0.00%     87.50% # Class of committed instruction (Count)
system.cpu.commit.committedInstType_0::SimdFloatMultAcc            0      0.00%     87.50% # Class of committed instruction (Count)
system.cpu.commit.committedInstType_0::SimdFloatSqrt            0      0.00%     87.50% # Class of committed instruction (Count)
system.cpu.commit.committedInstType_0::SimdReduceAdd            0      0.00%     87.50% # Class of committed instruction (Count)
system.cpu.commit.committedInstType_0::SimdReduceAlu            0      0.00%     87.50% # Class of committed instruction (Count)
system.cpu.commit.committedInstType_0::SimdReduceCmp            0      0.00%     87.50% # Class of committed instruction (Count)
system.cpu.commit.committedInstType_0::SimdFloatReduceAdd            0      0.00%     87.50% # Class of committed instruction (Count)
system.cpu.commit.committedInstType_0::SimdFloatReduceCmp            0      0.00%     87.50% # Class of committed instruction (Count)
system.cpu.commit.committedInstType_0::SimdAes            0      0.00%     87.50% # Class of committed instruction (Count)
system.cpu.commit.committedInstType_0::SimdAesMix            0      0.00%     87.50% # Class of committed instruction (Count)
system.cpu.commit.committedInstType_0::SimdSha1Hash            0      0.00%     87.50% # Class of committed instruction (Count)
system.cpu.commit.committedInstType_0::SimdSha1Hash2            0      0.00%     87.50% # Class of committed instruction (Count)
system.cpu.commit.committedInstType_0::SimdSha256Hash            0      0.00%     87.50% # Class of committed instruction (Count)
system.cpu.commit.committedInstType_0::SimdSha256Hash2            0      0.00%     87.50% # Class of committed instruction (Count)
system.cpu.commit.committedInstType_0::SimdShaSigma2            0      0.00%     87.50% # Class of committed instruction (Count)
system.cpu.commit.committedInstType_0::SimdShaSigma3            0      0.00%     87.50% # Class of committed instruction (Count)
system.cpu.commit.committedInstType_0::SimdPredAlu            0      0.00%     87.50% # Class of committed instruction (Count)
system.cpu.commit.committedInstType_0::MemRead      1048577     12.50%    100.00% # Class of committed instruction (Count)
system.cpu.commit.committedInstType_0::MemWrite            1      0.00%    100.00% # Class of committed instruction (Count)
system.cpu.commit.committedInstType_0::FloatMemRead            0      0.00%    100.00% # Class of committed instruction (Count)
system.cpu.commit.committedInstType_0::FloatMemWrite            0      0.00%    100.00% # Class of committed instruction (Count)
system.cpu.commit.committedInstType_0::IprAccess            0      0.00%    100.00% # Class of committed instruction (Count)
system.cpu.commit.committedInstType_0::InstPrefetch            0      0.00%    100.00% # Class of committed instruction (Count)
system.cpu.commit.committedInstType_0::total      8388625                       # Class of committed instruction (Count)
system.cpu.commit.commitEligibleSamples       1048577                       # number cycles where commit BW limit reached (Cycle)
system.cpu.decode.idleCycles                   349721                       # Number of cycles decode is idle (Cycle)
system.cpu.decode.blockedCycles              10636678                       # Number of cycles decode is blocked (Cycle)
system.cpu.decode.runCycles                        30                       # Number of cycles decode is running (Cycle)
system.cpu.decode.unblockCycles               1048554                       # Number of cycles decode is unblocking (Cycle)
system.cpu.decode.squashCycles                      2                       # Number of cycles decode is squashing (Cycle)
[...]
system.mem_ctrl.rdPerTurnAround::15                46      0.07%      0.24% # Reads before turning the bus around for writes (Count)
system.mem_ctrl.rdPerTurnAround::16             65497     99.58%     99.82% # Reads before turning the bus around for writes (Count)
system.mem_ctrl.rdPerTurnAround::17               103      0.16%     99.98% # Reads before turning the bus around for writes (Count)
system.mem_ctrl.rdPerTurnAround::18                 6      0.01%     99.98% # Reads before turning the bus around for writes (Count)
system.mem_ctrl.rdPerTurnAround::19                 6      0.01%     99.99% # Reads before turning the bus around for writes (Count)
system.mem_ctrl.rdPerTurnAround::21                 4      0.01%    100.00% # Reads before turning the bus around for writes (Count)
system.mem_ctrl.rdPerTurnAround::total          65774                       # Reads before turning the bus around for writes (Count)
system.mem_ctrl.wrPerTurnAround::samples        65773                       # Writes before turning the bus around for reads (Count)
system.mem_ctrl.wrPerTurnAround::mean       16.001581                       # Writes before turning the bus around for reads (Count)
system.mem_ctrl.wrPerTurnAround::gmean      16.001515                       # Writes before turning the bus around for reads (Count)
system.mem_ctrl.wrPerTurnAround::stdev       0.048047                       # Writes before turning the bus around for reads (Count)
system.mem_ctrl.wrPerTurnAround::16             65682     99.86%     99.86% # Writes before turning the bus around for reads (Count)
system.mem_ctrl.wrPerTurnAround::17                85      0.13%     99.99% # Writes before turning the bus around for reads (Count)
system.mem_ctrl.wrPerTurnAround::18                 2      0.00%     99.99% # Writes before turning the bus around for reads (Count)
system.mem_ctrl.wrPerTurnAround::19                 2      0.00%    100.00% # Writes before turning the bus around for reads (Count)
system.mem_ctrl.wrPerTurnAround::20                 1      0.00%    100.00% # Writes before turning the bus around for reads (Count)
system.mem_ctrl.wrPerTurnAround::21                 1      0.00%    100.00% # Writes before turning the bus around for reads (Count)
system.mem_ctrl.wrPerTurnAround::total          65773                       # Writes before turning the bus around for reads (Count)
system.mem_ctrl.bytesReadWrQ                    62336                       # Total number of bytes read from write queue (Byte)
system.mem_ctrl.bytesReadSys                 67391552                       # Total read bytes from the system interface side (Byte)
system.mem_ctrl.bytesWrittenSys              67391552                       # Total written bytes from the system interface side (Byte)
system.mem_ctrl.avgRdBWSys               937726240.03020918                       # Average system read bandwidth in Byte/s ((Byte/Second))
system.mem_ctrl.avgWrBWSys               937726240.03020918                       # Average system write bandwidth in Byte/s ((Byte/Second))
system.mem_ctrl.totGap                    71866994000                       # Total gap between requests (Tick)
system.mem_ctrl.avgGap                       34125.11                       # Average gap between requests ((Tick/Count))
system.mem_ctrl.requestorReadBytes::caches.controllers1     67329152                       # Per-requestor bytes read from memory (Byte)
system.mem_ctrl.requestorWriteBytes::caches.controllers1     67358720                       # Per-requestor bytes write to memory (Byte)
system.mem_ctrl.requestorReadRate::caches.controllers1 936857969.221163511276                       # Per-requestor bytes read from memory rate ((Byte/Second))
system.mem_ctrl.requestorWriteRate::caches.controllers1 937269396.004526615143                       # Per-requestor bytes write to memory rate ((Byte/Second))
system.mem_ctrl.requestorReadAccesses::caches.controllers1      1052993                       # Per-requestor read serviced memory accesses (Count)
system.mem_ctrl.requestorWriteAccesses::caches.controllers1      1052993                       # Per-requestor write serviced memory accesses (Count)
system.mem_ctrl.requestorReadTotalLat::caches.controllers1  29646711250                       # Per-requestor read total memory access latency (Tick)
system.mem_ctrl.requestorWriteTotalLat::caches.controllers1 1778658359000                       # Per-requestor write total memory access latency (Tick)
system.mem_ctrl.requestorReadAvgLat::caches.controllers1     28154.71                       # Per-requestor read average memory access latency ((Tick/Count))
system.mem_ctrl.requestorWriteAvgLat::caches.controllers1   1689145.47                       # Per-requestor write average memory access latency ((Tick/Count))
system.mem_ctrl.dram.bytesRead::caches.controllers1     67391488                       # Number of bytes read from this memory (Byte)
system.mem_ctrl.dram.bytesRead::total        67391488                       # Number of bytes read from this memory (Byte)
system.mem_ctrl.dram.bytesWritten::caches.controllers1     67391552                       # Number of bytes written to this memory (Byte)
system.mem_ctrl.dram.bytesWritten::total     67391552                       # Number of bytes written to this memory (Byte)
system.mem_ctrl.dram.numReads::caches.controllers1      1052992                       # Number of read requests responded to by this memory (Count)
system.mem_ctrl.dram.numReads::total          1052992                       # Number of read requests responded to by this memory (Count)
system.mem_ctrl.dram.numWrites::caches.controllers1      1052993                       # Number of write requests responded to by this memory (Count)
system.mem_ctrl.dram.numWrites::total         1052993                       # Number of write requests responded to by this memory (Count)
system.mem_ctrl.dram.bwRead::caches.controllers1    937725349                       # Total read bandwidth from this memory ((Byte/Second))
system.mem_ctrl.dram.bwRead::total          937725349                       # Total read bandwidth from this memory ((Byte/Second))
system.mem_ctrl.dram.bwWrite::caches.controllers1    937726240                       # Write bandwidth from this memory ((Byte/Second))
system.mem_ctrl.dram.bwWrite::total         937726240                       # Write bandwidth from this memory ((Byte/Second))
system.mem_ctrl.dram.bwTotal::caches.controllers1   1875451590                       # Total bandwidth to/from this memory ((Byte/Second))
system.mem_ctrl.dram.bwTotal::total        1875451590                       # Total bandwidth to/from this memory ((Byte/Second))
system.mem_ctrl.dram.readBursts               1052018                       # Number of DRAM read bursts (Count)
system.mem_ctrl.dram.writeBursts              1052480                       # Number of DRAM write bursts (Count)
system.mem_ctrl.dram.perBankRdBursts::0         66222                       # Per bank write bursts (Count)
system.mem_ctrl.dram.perBankRdBursts::1         65824                       # Per bank write bursts (Count)
system.mem_ctrl.dram.perBankRdBursts::2         65603                       # Per bank write bursts (Count)
system.mem_ctrl.dram.perBankRdBursts::3         65720                       # Per bank write bursts (Count)
system.mem_ctrl.dram.perBankRdBursts::4         65737                       # Per bank write bursts (Count)
system.mem_ctrl.dram.perBankRdBursts::5         65810                       # Per bank write bursts (Count)
system.mem_ctrl.dram.perBankRdBursts::6         65827                       # Per bank write bursts (Count)
system.mem_ctrl.dram.perBankRdBursts::7         65636                       # Per bank write bursts (Count)
system.mem_ctrl.dram.perBankRdBursts::8         65744                       # Per bank write bursts (Count)
system.mem_ctrl.dram.perBankRdBursts::9         65732                       # Per bank write bursts (Count)
system.mem_ctrl.dram.perBankRdBursts::10        65750                       # Per bank write bursts (Count)
system.mem_ctrl.dram.perBankRdBursts::11        65682                       # Per bank write bursts (Count)
system.mem_ctrl.dram.perBankRdBursts::12        65616                       # Per bank write bursts (Count)
system.mem_ctrl.dram.perBankRdBursts::13        65653                       # Per bank write bursts (Count)
system.mem_ctrl.dram.perBankRdBursts::14        65670                       # Per bank write bursts (Count)
system.mem_ctrl.dram.perBankRdBursts::15        65792                       # Per bank write bursts (Count)
system.mem_ctrl.dram.perBankWrBursts::0         66352                       # Per bank write bursts (Count)
system.mem_ctrl.dram.perBankWrBursts::1         65876                       # Per bank write bursts (Count)
system.mem_ctrl.dram.perBankWrBursts::2         65605                       # Per bank write bursts (Count)
system.mem_ctrl.dram.perBankWrBursts::3         65738                       # Per bank write bursts (Count)
system.mem_ctrl.dram.perBankWrBursts::4         65769                       # Per bank write bursts (Count)
system.mem_ctrl.dram.perBankWrBursts::5         65836                       # Per bank write bursts (Count)
system.mem_ctrl.dram.perBankWrBursts::6         65916                       # Per bank write bursts (Count)
system.mem_ctrl.dram.perBankWrBursts::7         65664                       # Per bank write bursts (Count)
system.mem_ctrl.dram.perBankWrBursts::8         65757                       # Per bank write bursts (Count)
system.mem_ctrl.dram.perBankWrBursts::9         65743                       # Per bank write bursts (Count)
system.mem_ctrl.dram.perBankWrBursts::10        65768                       # Per bank write bursts (Count)
system.mem_ctrl.dram.perBankWrBursts::11        65677                       # Per bank write bursts (Count)
system.mem_ctrl.dram.perBankWrBursts::12        65629                       # Per bank write bursts (Count)
system.mem_ctrl.dram.perBankWrBursts::13        65661                       # Per bank write bursts (Count)
system.mem_ctrl.dram.perBankWrBursts::14        65678                       # Per bank write bursts (Count)
system.mem_ctrl.dram.perBankWrBursts::15        65811                       # Per bank write bursts (Count)
system.mem_ctrl.dram.totQLat               9921373750                       # Total ticks spent queuing (Tick)
system.mem_ctrl.dram.totBusLat             5260090000                       # Total ticks spent in databus transfers (Tick)
system.mem_ctrl.dram.totMemAccLat         29646711250                       # Total ticks spent from burst creation until serviced by the DRAM (Tick)
system.mem_ctrl.dram.avgQLat                  9430.80                       # Average queueing delay per DRAM burst ((Tick/Count))
system.mem_ctrl.dram.avgBusLat                5000.00                       # Average bus latency per DRAM burst ((Tick/Count))
system.mem_ctrl.dram.avgMemAccLat            28180.80                       # Average memory access latency per DRAM burst ((Tick/Count))
system.mem_ctrl.dram.readRowHits               973124                       # Number of row buffer hits during reads (Count)
system.mem_ctrl.dram.writeRowHits              980581                       # Number of row buffer hits during writes (Count)
system.mem_ctrl.dram.readRowHitRate             92.50                       # Row buffer hit rate for reads (Ratio)
system.mem_ctrl.dram.writeRowHitRate            93.17                       # Row buffer hit rate for writes (Ratio)
system.mem_ctrl.dram.bytesPerActivate::samples       150779                       # Bytes accessed per row activation (Byte)
system.mem_ctrl.dram.bytesPerActivate::mean   893.255427                       # Bytes accessed per row activation (Byte)
system.mem_ctrl.dram.bytesPerActivate::gmean   776.873221                       # Bytes accessed per row activation (Byte)
system.mem_ctrl.dram.bytesPerActivate::stdev   284.021515                       # Bytes accessed per row activation (Byte)
system.mem_ctrl.dram.bytesPerActivate::0-127         7524      4.99%      4.99% # Bytes accessed per row activation (Byte)
system.mem_ctrl.dram.bytesPerActivate::128-255         3906      2.59%      7.58% # Bytes accessed per row activation (Byte)
system.mem_ctrl.dram.bytesPerActivate::256-383         3132      2.08%      9.66% # Bytes accessed per row activation (Byte)
system.mem_ctrl.dram.bytesPerActivate::384-511         3496      2.32%     11.98% # Bytes accessed per row activation (Byte)
system.mem_ctrl.dram.bytesPerActivate::512-639         4241      2.81%     14.79% # Bytes accessed per row activation (Byte)
system.mem_ctrl.dram.bytesPerActivate::640-767         2476      1.64%     16.43% # Bytes accessed per row activation (Byte)
system.mem_ctrl.dram.bytesPerActivate::768-895         2950      1.96%     18.39% # Bytes accessed per row activation (Byte)
system.mem_ctrl.dram.bytesPerActivate::896-1023         9485      6.29%     24.68% # Bytes accessed per row activation (Byte)
system.mem_ctrl.dram.bytesPerActivate::1024-1151       113569     75.32%    100.00% # Bytes accessed per row activation (Byte)
system.mem_ctrl.dram.bytesPerActivate::total       150779                       # Bytes accessed per row activation (Byte)
system.mem_ctrl.dram.bytesRead               67329152                       # Total number of bytes read from DRAM (Byte)
system.mem_ctrl.dram.bytesWritten            67358720                       # Total number of bytes written to DRAM (Byte)
system.mem_ctrl.dram.avgRdBW               936.857969                       # Average DRAM read bandwidth in MiBytes/s ((Byte/Second))
system.mem_ctrl.dram.avgWrBW               937.269396                       # Average DRAM write bandwidth in MiBytes/s ((Byte/Second))
system.mem_ctrl.dram.peakBW                  12800.00                       # Theoretical peak bandwidth in MiByte/s ((Byte/Second))
system.mem_ctrl.dram.busUtil                    14.64                       # Data bus utilization in percentage (Ratio)
system.mem_ctrl.dram.busUtilRead                 7.32                       # Data bus utilization in percentage for reads (Ratio)
system.mem_ctrl.dram.busUtilWrite                7.32                       # Data bus utilization in percentage for writes (Ratio)
system.mem_ctrl.dram.pageHitRate                92.83                       # Row buffer hit rate, read and write combined (Ratio)
system.mem_ctrl.dram.power_state.pwrStateResidencyTicks::UNDEFINED 107432434000                       # Cumulative time (in ticks) in various power states (Tick)
system.mem_ctrl.dram.rank0.actEnergy        537770520                       # Energy for activate commands per rank (pJ) (Joule)
system.mem_ctrl.dram.rank0.preEnergy        285801450                       # Energy for precharge commands per rank (pJ) (Joule)
system.mem_ctrl.dram.rank0.readEnergy      3759231420                       # Energy for read commands per rank (pJ) (Joule)
system.mem_ctrl.dram.rank0.writeEnergy     2750261400                       # Energy for write commands per rank (pJ) (Joule)
system.mem_ctrl.dram.rank0.refreshEnergy 5673127200.000001                       # Energy for refresh commands per rank (pJ) (Joule)
system.mem_ctrl.dram.rank0.actBackEnergy  27020223000                       # Energy for active background per rank (pJ) (Joule)
system.mem_ctrl.dram.rank0.preBackEnergy   4845936000                       # Energy for precharge background per rank (pJ) (Joule)
system.mem_ctrl.dram.rank0.actPowerDownEnergy            0                       # Energy for active power-down per rank (pJ) (Joule)
system.mem_ctrl.dram.rank0.prePowerDownEnergy            0                       # Energy for precharge power-down per rank (pJ) (Joule)
system.mem_ctrl.dram.rank0.selfRefreshEnergy            0                       # Energy for self refresh per rank (pJ) (Joule)
system.mem_ctrl.dram.rank0.totalEnergy    44872350990                       # Total energy per rank (pJ) (Joule)
system.mem_ctrl.dram.rank0.averagePower    624.380649                       # Core power per rank (mW) (Watt)
system.mem_ctrl.dram.rank0.totalIdleTime            0                       # Total Idle time Per DRAM Rank (Tick)
system.mem_ctrl.dram.rank0.pwrStateTime::IDLE  12263118000                       # Time in different power states (Tick)
system.mem_ctrl.dram.rank0.pwrStateTime::REF   2399800000                       # Time in different power states (Tick)
system.mem_ctrl.dram.rank0.pwrStateTime::SREF            0                       # Time in different power states (Tick)
system.mem_ctrl.dram.rank0.pwrStateTime::PRE_PDN            0                       # Time in different power states (Tick)
system.mem_ctrl.dram.rank0.pwrStateTime::ACT  57207369000                       # Time in different power states (Tick)
system.mem_ctrl.dram.rank0.pwrStateTime::ACT_PDN            0                       # Time in different power states (Tick)
system.mem_ctrl.dram.rank1.actEnergy        539184240                       # Energy for activate commands per rank (pJ) (Joule)
system.mem_ctrl.dram.rank1.preEnergy        286552860                       # Energy for precharge commands per rank (pJ) (Joule)
system.mem_ctrl.dram.rank1.readEnergy      3753105300                       # Energy for read commands per rank (pJ) (Joule)
system.mem_ctrl.dram.rank1.writeEnergy     2744326260                       # Energy for write commands per rank (pJ) (Joule)
system.mem_ctrl.dram.rank1.refreshEnergy 5673127200.000001                       # Energy for refresh commands per rank (pJ) (Joule)
system.mem_ctrl.dram.rank1.actBackEnergy  27265769310                       # Energy for active background per rank (pJ) (Joule)
system.mem_ctrl.dram.rank1.preBackEnergy   4637348160                       # Energy for precharge background per rank (pJ) (Joule)
system.mem_ctrl.dram.rank1.actPowerDownEnergy            0                       # Energy for active power-down per rank (pJ) (Joule)
system.mem_ctrl.dram.rank1.prePowerDownEnergy            0                       # Energy for precharge power-down per rank (pJ) (Joule)
system.mem_ctrl.dram.rank1.selfRefreshEnergy            0                       # Energy for self refresh per rank (pJ) (Joule)
system.mem_ctrl.dram.rank1.totalEnergy    44899413330                       # Total energy per rank (pJ) (Joule)
system.mem_ctrl.dram.rank1.averagePower    624.757211                       # Core power per rank (mW) (Watt)
system.mem_ctrl.dram.rank1.totalIdleTime            0                       # Total Idle time Per DRAM Rank (Tick)
system.mem_ctrl.dram.rank1.pwrStateTime::IDLE  11718901500                       # Time in different power states (Tick)
system.mem_ctrl.dram.rank1.pwrStateTime::REF   2399800000                       # Time in different power states (Tick)
system.mem_ctrl.dram.rank1.pwrStateTime::SREF            0                       # Time in different power states (Tick)
system.mem_ctrl.dram.rank1.pwrStateTime::PRE_PDN            0                       # Time in different power states (Tick)
system.mem_ctrl.dram.rank1.pwrStateTime::ACT  57751079500                       # Time in different power states (Tick)
system.mem_ctrl.dram.rank1.pwrStateTime::ACT_PDN            0                       # Time in different power states (Tick)
system.mem_ctrl.power_state.pwrStateResidencyTicks::UNDEFINED 107432434000                       # Cumulative time (in ticks) in various power states (Tick)
system.workload.inst.arm                            0                       # number of arm instructions executed (Count)
system.workload.inst.quiesce                        0                       # number of quiesce instructions executed (Count)

---------- End Simulation Statistics   ----------
