
---------- Begin Simulation Statistics ----------
simSeconds                                   0.000222                       # Number of seconds simulated (Second)
simTicks                                    222371000                       # Number of ticks simulated (Tick)
finalTick                                   222371000                       # Number of ticks from beginning of simulation (restored from checkpoints and never reset) (Tick)
simFreq                                  1000000000000                       # The number of ticks per simulated second ((Tick/Second))
hostSeconds                                      0.80                       # Real time elapsed on the host (Second)
hostTickRate                                278208499                       # The number of ticks simulated per host second (ticks/s) ((Tick/Second))
hostMemory                                     750160                       # Number of bytes of host memory used (Byte)
simInsts                                       123064                       # Number of instructions simulated (Count)
simOps                                         227381                       # Number of ops (including micro ops) simulated (Count)
hostInstRate                                   153946                       # Simulator instruction rate (inst/s) ((Count/Second))
hostOpRate                                     284437                       # Simulator op (including micro ops) rate (op/s) ((Count/Second))
system.caches.delayHistogram::bucket_size            2                       # delay histogram for all message (Unspecified)
system.caches.delayHistogram::max_bucket           19                       # delay histogram for all message (Unspecified)
system.caches.delayHistogram::samples            6660                       # delay histogram for all message (Unspecified)
system.caches.delayHistogram::mean           0.080180                       # delay histogram for all message (Unspecified)
system.caches.delayHistogram::stdev          0.689002                       # delay histogram for all message (Unspecified)
system.caches.delayHistogram             |        6545     98.27%     98.27% |          37      0.56%     98.83% |          30      0.45%     99.28% |          27      0.41%     99.68% |          20      0.30%     99.98% |           0      0.00%     99.98% |           0      0.00%     99.98% |           0      0.00%     99.98% |           0      0.00%     99.98% |           1      0.02%    100.00% # delay histogram for all message (Unspecified)
system.caches.delayHistogram::total              6660                       # delay histogram for all message (Unspecified)
system.caches.m_outstandReqHistSeqr::bucket_size            2                       (Unspecified)
system.caches.m_outstandReqHistSeqr::max_bucket           19                       (Unspecified)
system.caches.m_outstandReqHistSeqr::samples        69700                       (Unspecified)
system.caches.m_outstandReqHistSeqr::mean     2.721234                       (Unspecified)
system.caches.m_outstandReqHistSeqr::gmean     1.958040                       (Unspecified)
system.caches.m_outstandReqHistSeqr::stdev     2.923491                       (Unspecified)
system.caches.m_outstandReqHistSeqr      |       29629     42.51%     42.51% |       27269     39.12%     81.63% |        6265      8.99%     90.62% |        1637      2.35%     92.97% |        1034      1.48%     94.45% |        1247      1.79%     96.24% |         977      1.40%     97.64% |         824      1.18%     98.83% |         818      1.17%    100.00% |           0      0.00%    100.00% (Unspecified)
system.caches.m_outstandReqHistSeqr::total        69700                       (Unspecified)
system.caches.m_latencyHistSeqr::bucket_size           64                       (Unspecified)
system.caches.m_latencyHistSeqr::max_bucket          639                       (Unspecified)
system.caches.m_latencyHistSeqr::samples        69789                       (Unspecified)
system.caches.m_latencyHistSeqr::mean        4.789064                       (Unspecified)
system.caches.m_latencyHistSeqr::gmean       1.244505                       (Unspecified)
system.caches.m_latencyHistSeqr::stdev      18.540651                       (Unspecified)
system.caches.m_latencyHistSeqr          |       68455     98.09%     98.09% |         984      1.41%     99.50% |         293      0.42%     99.92% |          22      0.03%     99.95% |          19      0.03%     99.98% |          14      0.02%    100.00% |           2      0.00%    100.00% |           0      0.00%    100.00% |           0      0.00%    100.00% |           0      0.00%    100.00% (Unspecified)
system.caches.m_latencyHistSeqr::total          69789                       (Unspecified)
system.caches.m_hitLatencyHistSeqr::bucket_size           16                       (Unspecified)
system.caches.m_hitLatencyHistSeqr::max_bucket          159                       (Unspecified)
system.caches.m_hitLatencyHistSeqr::samples        66203                       (Unspecified)
system.caches.m_hitLatencyHistSeqr::mean     1.014380                       (Unspecified)
system.caches.m_hitLatencyHistSeqr::gmean     1.001694                       (Unspecified)
system.caches.m_hitLatencyHistSeqr::stdev     1.020502                       (Unspecified)
system.caches.m_hitLatencyHistSeqr       |       66189     99.98%     99.98% |           1      0.00%     99.98% |           5      0.01%     99.99% |           3      0.00%     99.99% |           2      0.00%    100.00% |           1      0.00%    100.00% |           0      0.00%    100.00% |           0      0.00%    100.00% |           2      0.00%    100.00% |           0      0.00%    100.00% (Unspecified)
system.caches.m_hitLatencyHistSeqr::total        66203                       (Unspecified)
system.caches.m_missLatencyHistSeqr::bucket_size           64                       (Unspecified)
system.caches.m_missLatencyHistSeqr::max_bucket          639                       (Unspecified)
system.caches.m_missLatencyHistSeqr::samples         3586                       (Unspecified)
system.caches.m_missLatencyHistSeqr::mean    74.475460                       (Unspecified)
system.caches.m_missLatencyHistSeqr::gmean    68.424484                       (Unspecified)
system.caches.m_missLatencyHistSeqr::stdev    39.393924                       (Unspecified)
system.caches.m_missLatencyHistSeqr      |        2257     62.94%     62.94% |         981     27.36%     90.30% |         291      8.11%     98.41% |          22      0.61%     99.02% |          19      0.53%     99.55% |          14      0.39%     99.94% |           2      0.06%    100.00% |           0      0.00%    100.00% |           0      0.00%    100.00% |           0      0.00%    100.00% (Unspecified)
system.caches.m_missLatencyHistSeqr::total         3586                       (Unspecified)
system.caches.delayVCHist.vnet_1::bucket_size            1                       # delay histogram for vnet_1 (Unspecified)
system.caches.delayVCHist.vnet_1::max_bucket            9                       # delay histogram for vnet_1 (Unspecified)
system.caches.delayVCHist.vnet_1::samples         3586                       # delay histogram for vnet_1 (Unspecified)
system.caches.delayVCHist.vnet_1::mean       0.011154                       # delay histogram for vnet_1 (Unspecified)
system.caches.delayVCHist.vnet_1::stdev      0.258498                       # delay histogram for vnet_1 (Unspecified)
system.caches.delayVCHist.vnet_1         |        3577     99.75%     99.75% |           0      0.00%     99.75% |           4      0.11%     99.86% |           0      0.00%     99.86% |           2      0.06%     99.92% |           0      0.00%     99.92% |           0      0.00%     99.92% |           0      0.00%     99.92% |           3      0.08%    100.00% |           0      0.00%    100.00% # delay histogram for vnet_1 (Unspecified)
system.caches.delayVCHist.vnet_1::total          3586                       # delay histogram for vnet_1 (Unspecified)
system.caches.delayVCHist.vnet_2::bucket_size            2                       # delay histogram for vnet_2 (Unspecified)
system.caches.delayVCHist.vnet_2::max_bucket           19                       # delay histogram for vnet_2 (Unspecified)
system.caches.delayVCHist.vnet_2::samples         3074                       # delay histogram for vnet_2 (Unspecified)
system.caches.delayVCHist.vnet_2::mean       0.160703                       # delay histogram for vnet_2 (Unspecified)
system.caches.delayVCHist.vnet_2::stdev      0.968863                       # delay histogram for vnet_2 (Unspecified)
system.caches.delayVCHist.vnet_2         |        2968     96.55%     96.55% |          33      1.07%     97.63% |          28      0.91%     98.54% |          27      0.88%     99.41% |          17      0.55%     99.97% |           0      0.00%     99.97% |           0      0.00%     99.97% |           0      0.00%     99.97% |           0      0.00%     99.97% |           1      0.03%    100.00% # delay histogram for vnet_2 (Unspecified)
system.caches.delayVCHist.vnet_2::total          3074                       # delay histogram for vnet_2 (Unspecified)
system.caches.L1Cache_Controller.Load           30115      0.00%      0.00% (Unspecified)
system.caches.L1Cache_Controller.Ifetch         24804      0.00%      0.00% (Unspecified)
system.caches.L1Cache_Controller.Store          14871      0.00%      0.00% (Unspecified)
system.caches.L1Cache_Controller.Data            3586      0.00%      0.00% (Unspecified)
system.caches.L1Cache_Controller.Replacement         3075      0.00%      0.00% (Unspecified)
system.caches.L1Cache_Controller.Writeback_Ack         3074      0.00%      0.00% (Unspecified)
system.caches.L1Cache_Controller.I.Load          1786      0.00%      0.00% (Unspecified)
system.caches.L1Cache_Controller.I.Ifetch         1224      0.00%      0.00% (Unspecified)
system.caches.L1Cache_Controller.I.Store          577      0.00%      0.00% (Unspecified)
system.caches.L1Cache_Controller.M.Load         28329      0.00%      0.00% (Unspecified)
system.caches.L1Cache_Controller.M.Ifetch        23580      0.00%      0.00% (Unspecified)
system.caches.L1Cache_Controller.M.Store        14294      0.00%      0.00% (Unspecified)
system.caches.L1Cache_Controller.M.Replacement         3075      0.00%      0.00% (Unspecified)
system.caches.L1Cache_Controller.MI.Writeback_Ack         3074      0.00%      0.00% (Unspecified)
system.caches.L1Cache_Controller.IS.Data         3009      0.00%      0.00% (Unspecified)
system.caches.L1Cache_Controller.IM.Data          577      0.00%      0.00% (Unspecified)
system.caches.Directory_Controller.GETX          3586      0.00%      0.00% (Unspecified)
system.caches.Directory_Controller.PUTX          3074      0.00%      0.00% (Unspecified)
system.caches.Directory_Controller.Memory_Data         3586      0.00%      0.00% (Unspecified)
system.caches.Directory_Controller.Memory_Ack         3074      0.00%      0.00% (Unspecified)
system.caches.Directory_Controller.I.GETX         3586      0.00%      0.00% (Unspecified)
system.caches.Directory_Controller.M.PUTX         3074      0.00%      0.00% (Unspecified)
system.caches.Directory_Controller.IM.Memory_Data         3586      0.00%      0.00% (Unspecified)
system.caches.Directory_Controller.MI.Memory_Ack         3074      0.00%      0.00% (Unspecified)
system.caches.MachineType.Directory.miss_mach_latency_hist_seqr::bucket_size           64                       (Unspecified)
system.caches.MachineType.Directory.miss_mach_latency_hist_seqr::max_bucket          639                       (Unspecified)
system.caches.MachineType.Directory.miss_mach_latency_hist_seqr::samples         3586                       (Unspecified)
system.caches.MachineType.Directory.miss_mach_latency_hist_seqr::mean    74.475460                       (Unspecified)
system.caches.MachineType.Directory.miss_mach_latency_hist_seqr::gmean    68.424484                       (Unspecified)
system.caches.MachineType.Directory.miss_mach_latency_hist_seqr::stdev    39.393924                       (Unspecified)
system.caches.MachineType.Directory.miss_mach_latency_hist_seqr |        2257     62.94%     62.94% |         981     27.36%     90.30% |         291      8.11%     98.41% |          22      0.61%     99.02% |          19      0.53%     99.55% |          14      0.39%     99.94% |           2      0.06%    100.00% |           0      0.00%    100.00% |           0      0.00%    100.00% |           0      0.00%    100.00% (Unspecified)
system.caches.MachineType.Directory.miss_mach_latency_hist_seqr::total         3586                       (Unspecified)
system.caches.MachineType.Directory.miss_latency_hist_seqr.issue_to_initial_request::bucket_size            1                       (Unspecified)
system.caches.MachineType.Directory.miss_latency_hist_seqr.issue_to_initial_request::max_bucket            9                       (Unspecified)
system.caches.MachineType.Directory.miss_latency_hist_seqr.issue_to_initial_request::samples            1                       (Unspecified)
system.caches.MachineType.Directory.miss_latency_hist_seqr.issue_to_initial_request::stdev          nan                       (Unspecified)
system.caches.MachineType.Directory.miss_latency_hist_seqr.issue_to_initial_request |           1    100.00%    100.00% |           0      0.00%    100.00% |           0      0.00%    100.00% |           0      0.00%    100.00% |           0      0.00%    100.00% |           0      0.00%    100.00% |           0      0.00%    100.00% |           0      0.00%    100.00% |           0      0.00%    100.00% |           0      0.00%    100.00% (Unspecified)
system.caches.MachineType.Directory.miss_latency_hist_seqr.issue_to_initial_request::total            1                       (Unspecified)
system.caches.MachineType.Directory.miss_latency_hist_seqr.initial_to_forward::bucket_size            1                       (Unspecified)
system.caches.MachineType.Directory.miss_latency_hist_seqr.initial_to_forward::max_bucket            9                       (Unspecified)
system.caches.MachineType.Directory.miss_latency_hist_seqr.initial_to_forward::samples            1                       (Unspecified)
system.caches.MachineType.Directory.miss_latency_hist_seqr.initial_to_forward::stdev          nan                       (Unspecified)
system.caches.MachineType.Directory.miss_latency_hist_seqr.initial_to_forward |           1    100.00%    100.00% |           0      0.00%    100.00% |           0      0.00%    100.00% |           0      0.00%    100.00% |           0      0.00%    100.00% |           0      0.00%    100.00% |           0      0.00%    100.00% |           0      0.00%    100.00% |           0      0.00%    100.00% |           0      0.00%    100.00% (Unspecified)
system.caches.MachineType.Directory.miss_latency_hist_seqr.initial_to_forward::total            1                       (Unspecified)
system.caches.MachineType.Directory.miss_latency_hist_seqr.forward_to_first_response::bucket_size            1                       (Unspecified)
system.caches.MachineType.Directory.miss_latency_hist_seqr.forward_to_first_response::max_bucket            9                       (Unspecified)
system.caches.MachineType.Directory.miss_latency_hist_seqr.forward_to_first_response::samples            1                       (Unspecified)
system.caches.MachineType.Directory.miss_latency_hist_seqr.forward_to_first_response::stdev          nan                       (Unspecified)
system.caches.MachineType.Directory.miss_latency_hist_seqr.forward_to_first_response |           1    100.00%    100.00% |           0      0.00%    100.00% |           0      0.00%    100.00% |           0      0.00%    100.00% |           0      0.00%    100.00% |           0      0.00%    100.00% |           0      0.00%    100.00% |           0      0.00%    100.00% |           0      0.00%    100.00% |           0      0.00%    100.00% (Unspecified)
system.caches.MachineType.Directory.miss_latency_hist_seqr.forward_to_first_response::total            1                       (Unspecified)
system.caches.MachineType.Directory.miss_latency_hist_seqr.first_response_to_completion::bucket_size            8                       (Unspecified)
system.caches.MachineType.Directory.miss_latency_hist_seqr.first_response_to_completion::max_bucket           79                       (Unspecified)
system.caches.MachineType.Directory.miss_latency_hist_seqr.first_response_to_completion::samples            1                       (Unspecified)
system.caches.MachineType.Directory.miss_latency_hist_seqr.first_response_to_completion::mean           73                       (Unspecified)
system.caches.MachineType.Directory.miss_latency_hist_seqr.first_response_to_completion::gmean    73.000000                       (Unspecified)
system.caches.MachineType.Directory.miss_latency_hist_seqr.first_response_to_completion::stdev          nan                       (Unspecified)
system.caches.MachineType.Directory.miss_latency_hist_seqr.first_response_to_completion |           0      0.00%      0.00% |           0      0.00%      0.00% |           0      0.00%      0.00% |           0      0.00%      0.00% |           0      0.00%      0.00% |           0      0.00%      0.00% |           0      0.00%      0.00% |           0      0.00%      0.00% |           0      0.00%      0.00% |           1    100.00%    100.00% (Unspecified)
system.caches.MachineType.Directory.miss_latency_hist_seqr.first_response_to_completion::total            1                       (Unspecified)
system.caches.MachineType.Directory.incomplete_times_seqr         3585                       (Unspecified)
system.caches.RequestType.LD.latency_hist_seqr::bucket_size           64                       (Unspecified)
system.caches.RequestType.LD.latency_hist_seqr::max_bucket          639                       (Unspecified)
system.caches.RequestType.LD.latency_hist_seqr::samples        30115                       (Unspecified)
system.caches.RequestType.LD.latency_hist_seqr::mean     5.554275                       (Unspecified)
system.caches.RequestType.LD.latency_hist_seqr::gmean     1.287909                       (Unspecified)
system.caches.RequestType.LD.latency_hist_seqr::stdev    20.764861                       (Unspecified)
system.caches.RequestType.LD.latency_hist_seqr |       29331     97.40%     97.40% |         583      1.94%     99.33% |         167      0.55%     99.89% |          15      0.05%     99.94% |           8      0.03%     99.96% |          10      0.03%    100.00% |           1      0.00%    100.00% |           0      0.00%    100.00% |           0      0.00%    100.00% |           0      0.00%    100.00% (Unspecified)
system.caches.RequestType.LD.latency_hist_seqr::total        30115                       (Unspecified)
system.caches.RequestType.LD.hit_latency_hist_seqr::bucket_size            8                       (Unspecified)
system.caches.RequestType.LD.hit_latency_hist_seqr::max_bucket           79                       (Unspecified)
system.caches.RequestType.LD.hit_latency_hist_seqr::samples        28329                       (Unspecified)
system.caches.RequestType.LD.hit_latency_hist_seqr::mean     1.001588                       (Unspecified)
system.caches.RequestType.LD.hit_latency_hist_seqr::gmean     1.000135                       (Unspecified)
system.caches.RequestType.LD.hit_latency_hist_seqr::stdev     0.267360                       (Unspecified)
system.caches.RequestType.LD.hit_latency_hist_seqr |       28328    100.00%    100.00% |           0      0.00%    100.00% |           0      0.00%    100.00% |           0      0.00%    100.00% |           0      0.00%    100.00% |           1      0.00%    100.00% |           0      0.00%    100.00% |           0      0.00%    100.00% |           0      0.00%    100.00% |           0      0.00%    100.00% (Unspecified)
system.caches.RequestType.LD.hit_latency_hist_seqr::total        28329                       (Unspecified)
system.caches.RequestType.LD.miss_latency_hist_seqr::bucket_size           64                       (Unspecified)
system.caches.RequestType.LD.miss_latency_hist_seqr::max_bucket          639                       (Unspecified)
system.caches.RequestType.LD.miss_latency_hist_seqr::samples         1786                       (Unspecified)
system.caches.RequestType.LD.miss_latency_hist_seqr::mean    77.767637                       (Unspecified)
system.caches.RequestType.LD.miss_latency_hist_seqr::gmean    71.108365                       (Unspecified)
system.caches.RequestType.LD.miss_latency_hist_seqr::stdev    41.550891                       (Unspecified)
system.caches.RequestType.LD.miss_latency_hist_seqr |        1002     56.10%     56.10% |         583     32.64%     88.75% |         167      9.35%     98.10% |          15      0.84%     98.94% |           8      0.45%     99.38% |          10      0.56%     99.94% |           1      0.06%    100.00% |           0      0.00%    100.00% |           0      0.00%    100.00% |           0      0.00%    100.00% (Unspecified)
system.caches.RequestType.LD.miss_latency_hist_seqr::total         1786                       (Unspecified)
system.caches.RequestType.ST.latency_hist_seqr::bucket_size           64                       (Unspecified)
system.caches.RequestType.ST.latency_hist_seqr::max_bucket          639                       (Unspecified)
system.caches.RequestType.ST.latency_hist_seqr::samples        14446                       (Unspecified)
system.caches.RequestType.ST.latency_hist_seqr::mean     3.836633                       (Unspecified)
system.caches.RequestType.ST.latency_hist_seqr::gmean     1.184408                       (Unspecified)
system.caches.RequestType.ST.latency_hist_seqr::stdev    16.059716                       (Unspecified)
system.caches.RequestType.ST.latency_hist_seqr |       14280     98.85%     98.85% |         111      0.77%     99.62% |          45      0.31%     99.93% |           2      0.01%     99.94% |           7      0.05%     99.99% |           1      0.01%    100.00% |           0      0.00%    100.00% |           0      0.00%    100.00% |           0      0.00%    100.00% |           0      0.00%    100.00% (Unspecified)
system.caches.RequestType.ST.latency_hist_seqr::total        14446                       (Unspecified)
system.caches.RequestType.ST.hit_latency_hist_seqr::bucket_size           16                       (Unspecified)
system.caches.RequestType.ST.hit_latency_hist_seqr::max_bucket          159                       (Unspecified)
system.caches.RequestType.ST.hit_latency_hist_seqr::samples        13886                       (Unspecified)
system.caches.RequestType.ST.hit_latency_hist_seqr::mean     1.040616                       (Unspecified)
system.caches.RequestType.ST.hit_latency_hist_seqr::gmean     1.006339                       (Unspecified)
system.caches.RequestType.ST.hit_latency_hist_seqr::stdev     1.598683                       (Unspecified)
system.caches.RequestType.ST.hit_latency_hist_seqr |       13878     99.94%     99.94% |           1      0.01%     99.95% |           1      0.01%     99.96% |           3      0.02%     99.98% |           2      0.01%     99.99% |           0      0.00%     99.99% |           0      0.00%     99.99% |           0      0.00%     99.99% |           1      0.01%    100.00% |           0      0.00%    100.00% (Unspecified)
system.caches.RequestType.ST.hit_latency_hist_seqr::total        13886                       (Unspecified)
system.caches.RequestType.ST.miss_latency_hist_seqr::bucket_size           64                       (Unspecified)
system.caches.RequestType.ST.miss_latency_hist_seqr::max_bucket          639                       (Unspecified)
system.caches.RequestType.ST.miss_latency_hist_seqr::samples          560                       (Unspecified)
system.caches.RequestType.ST.miss_latency_hist_seqr::mean    73.167857                       (Unspecified)
system.caches.RequestType.ST.miss_latency_hist_seqr::gmean    67.302212                       (Unspecified)
system.caches.RequestType.ST.miss_latency_hist_seqr::stdev    39.895037                       (Unspecified)
system.caches.RequestType.ST.miss_latency_hist_seqr |         397     70.89%     70.89% |         109     19.46%     90.36% |          44      7.86%     98.21% |           2      0.36%     98.57% |           7      1.25%     99.82% |           1      0.18%    100.00% |           0      0.00%    100.00% |           0      0.00%    100.00% |           0      0.00%    100.00% |           0      0.00%    100.00% (Unspecified)
system.caches.RequestType.ST.miss_latency_hist_seqr::total          560                       (Unspecified)
system.caches.RequestType.IFETCH.latency_hist_seqr::bucket_size           64                       (Unspecified)
system.caches.RequestType.IFETCH.latency_hist_seqr::max_bucket          639                       (Unspecified)
system.caches.RequestType.IFETCH.latency_hist_seqr::samples        24803                       (Unspecified)
system.caches.RequestType.IFETCH.latency_hist_seqr::mean     4.410031                       (Unspecified)
system.caches.RequestType.IFETCH.latency_hist_seqr::gmean     1.228780                       (Unspecified)
system.caches.RequestType.IFETCH.latency_hist_seqr::stdev    16.897190                       (Unspecified)
system.caches.RequestType.IFETCH.latency_hist_seqr |       24431     98.50%     98.50% |         282      1.14%     99.64% |          77      0.31%     99.95% |           5      0.02%     99.97% |           4      0.02%     99.98% |           3      0.01%    100.00% |           1      0.00%    100.00% |           0      0.00%    100.00% |           0      0.00%    100.00% |           0      0.00%    100.00% (Unspecified)
system.caches.RequestType.IFETCH.latency_hist_seqr::total        24803                       (Unspecified)
system.caches.RequestType.IFETCH.hit_latency_hist_seqr::bucket_size            8                       (Unspecified)
system.caches.RequestType.IFETCH.hit_latency_hist_seqr::max_bucket           79                       (Unspecified)
system.caches.RequestType.IFETCH.hit_latency_hist_seqr::samples        23580                       (Unspecified)
system.caches.RequestType.IFETCH.hit_latency_hist_seqr::mean     1.001866                       (Unspecified)
system.caches.RequestType.IFETCH.hit_latency_hist_seqr::gmean     1.000161                       (Unspecified)
system.caches.RequestType.IFETCH.hit_latency_hist_seqr::stdev     0.286537                       (Unspecified)
system.caches.RequestType.IFETCH.hit_latency_hist_seqr |       23579    100.00%    100.00% |           0      0.00%    100.00% |           0      0.00%    100.00% |           0      0.00%    100.00% |           0      0.00%    100.00% |           1      0.00%    100.00% |           0      0.00%    100.00% |           0      0.00%    100.00% |           0      0.00%    100.00% |           0      0.00%    100.00% (Unspecified)
system.caches.RequestType.IFETCH.hit_latency_hist_seqr::total        23580                       (Unspecified)
system.caches.RequestType.IFETCH.miss_latency_hist_seqr::bucket_size           64                       (Unspecified)
system.caches.RequestType.IFETCH.miss_latency_hist_seqr::max_bucket          639                       (Unspecified)
system.caches.RequestType.IFETCH.miss_latency_hist_seqr::samples         1223                       (Unspecified)
system.caches.RequestType.IFETCH.miss_latency_hist_seqr::mean    70.121014                       (Unspecified)
system.caches.RequestType.IFETCH.miss_latency_hist_seqr::gmean    65.046549                       (Unspecified)
system.caches.RequestType.IFETCH.miss_latency_hist_seqr::stdev    35.322689                       (Unspecified)
system.caches.RequestType.IFETCH.miss_latency_hist_seqr |         851     69.58%     69.58% |         282     23.06%     92.64% |          77      6.30%     98.94% |           5      0.41%     99.35% |           4      0.33%     99.67% |           3      0.25%     99.92% |           1      0.08%    100.00% |           0      0.00%    100.00% |           0      0.00%    100.00% |           0      0.00%    100.00% (Unspecified)
system.caches.RequestType.IFETCH.miss_latency_hist_seqr::total         1223                       (Unspecified)
system.caches.RequestType.RMW_Read.latency_hist_seqr::bucket_size           32                       (Unspecified)
system.caches.RequestType.RMW_Read.latency_hist_seqr::max_bucket          319                       (Unspecified)
system.caches.RequestType.RMW_Read.latency_hist_seqr::samples          425                       (Unspecified)
system.caches.RequestType.RMW_Read.latency_hist_seqr::mean     5.061176                       (Unspecified)
system.caches.RequestType.RMW_Read.latency_hist_seqr::gmean     1.238688                       (Unspecified)
system.caches.RequestType.RMW_Read.latency_hist_seqr::stdev    19.681210                       (Unspecified)
system.caches.RequestType.RMW_Read.latency_hist_seqr |         404     95.06%     95.06% |           9      2.12%     97.18% |           8      1.88%     99.06% |           0      0.00%     99.06% |           3      0.71%     99.76% |           1      0.24%    100.00% |           0      0.00%    100.00% |           0      0.00%    100.00% |           0      0.00%    100.00% |           0      0.00%    100.00% (Unspecified)
system.caches.RequestType.RMW_Read.latency_hist_seqr::total          425                       (Unspecified)
system.caches.RequestType.RMW_Read.hit_latency_hist_seqr::bucket_size           16                       (Unspecified)
system.caches.RequestType.RMW_Read.hit_latency_hist_seqr::max_bucket          159                       (Unspecified)
system.caches.RequestType.RMW_Read.hit_latency_hist_seqr::samples          408                       (Unspecified)
system.caches.RequestType.RMW_Read.hit_latency_hist_seqr::mean     1.732843                       (Unspecified)
system.caches.RequestType.RMW_Read.hit_latency_hist_seqr::gmean     1.041708                       (Unspecified)
system.caches.RequestType.RMW_Read.hit_latency_hist_seqr::stdev     8.480050                       (Unspecified)
system.caches.RequestType.RMW_Read.hit_latency_hist_seqr |         404     99.02%     99.02% |           0      0.00%     99.02% |           2      0.49%     99.51% |           0      0.00%     99.51% |           0      0.00%     99.51% |           1      0.25%     99.75% |           0      0.00%     99.75% |           0      0.00%     99.75% |           1      0.25%    100.00% |           0      0.00%    100.00% (Unspecified)
system.caches.RequestType.RMW_Read.hit_latency_hist_seqr::total          408                       (Unspecified)
system.caches.RequestType.RMW_Read.miss_latency_hist_seqr::bucket_size           32                       (Unspecified)
system.caches.RequestType.RMW_Read.miss_latency_hist_seqr::max_bucket          319                       (Unspecified)
system.caches.RequestType.RMW_Read.miss_latency_hist_seqr::samples           17                       (Unspecified)
system.caches.RequestType.RMW_Read.miss_latency_hist_seqr::mean    84.941176                       (Unspecified)
system.caches.RequestType.RMW_Read.miss_latency_hist_seqr::gmean    79.094553                       (Unspecified)
system.caches.RequestType.RMW_Read.miss_latency_hist_seqr::stdev    37.059868                       (Unspecified)
system.caches.RequestType.RMW_Read.miss_latency_hist_seqr |           0      0.00%      0.00% |           7     41.18%     41.18% |           7     41.18%     82.35% |           0      0.00%     82.35% |           2     11.76%     94.12% |           1      5.88%    100.00% |           0      0.00%    100.00% |           0      0.00%    100.00% |           0      0.00%    100.00% |           0      0.00%    100.00% (Unspecified)
system.caches.RequestType.RMW_Read.miss_latency_hist_seqr::total           17                       (Unspecified)
system.caches.RequestTypeMachineType.LD.Directory.miss_type_mach_latency_hist_seqr::bucket_size           64                       (Unspecified)
system.caches.RequestTypeMachineType.LD.Directory.miss_type_mach_latency_hist_seqr::max_bucket          639                       (Unspecified)
system.caches.RequestTypeMachineType.LD.Directory.miss_type_mach_latency_hist_seqr::samples         1786                       (Unspecified)
system.caches.RequestTypeMachineType.LD.Directory.miss_type_mach_latency_hist_seqr::mean    77.767637                       (Unspecified)
system.caches.RequestTypeMachineType.LD.Directory.miss_type_mach_latency_hist_seqr::gmean    71.108365                       (Unspecified)
system.caches.RequestTypeMachineType.LD.Directory.miss_type_mach_latency_hist_seqr::stdev    41.550891                       (Unspecified)
system.caches.RequestTypeMachineType.LD.Directory.miss_type_mach_latency_hist_seqr |        1002     56.10%     56.10% |         583     32.64%     88.75% |         167      9.35%     98.10% |          15      0.84%     98.94% |           8      0.45%     99.38% |          10      0.56%     99.94% |           1      0.06%    100.00% |           0      0.00%    100.00% |           0      0.00%    100.00% |           0      0.00%    100.00% (Unspecified)
system.caches.RequestTypeMachineType.LD.Directory.miss_type_mach_latency_hist_seqr::total         1786                       (Unspecified)
system.caches.RequestTypeMachineType.ST.Directory.miss_type_mach_latency_hist_seqr::bucket_size           64                       (Unspecified)
system.caches.RequestTypeMachineType.ST.Directory.miss_type_mach_latency_hist_seqr::max_bucket          639                       (Unspecified)
system.caches.RequestTypeMachineType.ST.Directory.miss_type_mach_latency_hist_seqr::samples          560                       (Unspecified)
system.caches.RequestTypeMachineType.ST.Directory.miss_type_mach_latency_hist_seqr::mean    73.167857                       (Unspecified)
system.caches.RequestTypeMachineType.ST.Directory.miss_type_mach_latency_hist_seqr::gmean    67.302212                       (Unspecified)
system.caches.RequestTypeMachineType.ST.Directory.miss_type_mach_latency_hist_seqr::stdev    39.895037                       (Unspecified)
system.caches.RequestTypeMachineType.ST.Directory.miss_type_mach_latency_hist_seqr |         397     70.89%     70.89% |         109     19.46%     90.36% |          44      7.86%     98.21% |           2      0.36%     98.57% |           7      1.25%     99.82% |           1      0.18%    100.00% |           0      0.00%    100.00% |           0      0.00%    100.00% |           0      0.00%    100.00% |           0      0.00%    100.00% (Unspecified)
system.caches.RequestTypeMachineType.ST.Directory.miss_type_mach_latency_hist_seqr::total          560                       (Unspecified)
system.caches.RequestTypeMachineType.IFETCH.Directory.miss_type_mach_latency_hist_seqr::bucket_size           64                       (Unspecified)
system.caches.RequestTypeMachineType.IFETCH.Directory.miss_type_mach_latency_hist_seqr::max_bucket          639                       (Unspecified)
system.caches.RequestTypeMachineType.IFETCH.Directory.miss_type_mach_latency_hist_seqr::samples         1223                       (Unspecified)
system.caches.RequestTypeMachineType.IFETCH.Directory.miss_type_mach_latency_hist_seqr::mean    70.121014                       (Unspecified)
system.caches.RequestTypeMachineType.IFETCH.Directory.miss_type_mach_latency_hist_seqr::gmean    65.046549                       (Unspecified)
system.caches.RequestTypeMachineType.IFETCH.Directory.miss_type_mach_latency_hist_seqr::stdev    35.322689                       (Unspecified)
system.caches.RequestTypeMachineType.IFETCH.Directory.miss_type_mach_latency_hist_seqr |         851     69.58%     69.58% |         282     23.06%     92.64% |          77      6.30%     98.94% |           5      0.41%     99.35% |           4      0.33%     99.67% |           3      0.25%     99.92% |           1      0.08%    100.00% |           0      0.00%    100.00% |           0      0.00%    100.00% |           0      0.00%    100.00% (Unspecified)
system.caches.RequestTypeMachineType.IFETCH.Directory.miss_type_mach_latency_hist_seqr::total         1223                       (Unspecified)
system.caches.RequestTypeMachineType.RMW_Read.Directory.miss_type_mach_latency_hist_seqr::bucket_size           32                       (Unspecified)
system.caches.RequestTypeMachineType.RMW_Read.Directory.miss_type_mach_latency_hist_seqr::max_bucket          319                       (Unspecified)
system.caches.RequestTypeMachineType.RMW_Read.Directory.miss_type_mach_latency_hist_seqr::samples           17                       (Unspecified)
system.caches.RequestTypeMachineType.RMW_Read.Directory.miss_type_mach_latency_hist_seqr::mean    84.941176                       (Unspecified)
system.caches.RequestTypeMachineType.RMW_Read.Directory.miss_type_mach_latency_hist_seqr::gmean    79.094553                       (Unspecified)
system.caches.RequestTypeMachineType.RMW_Read.Directory.miss_type_mach_latency_hist_seqr::stdev    37.059868                       (Unspecified)
system.caches.RequestTypeMachineType.RMW_Read.Directory.miss_type_mach_latency_hist_seqr |           0      0.00%      0.00% |           7     41.18%     41.18% |           7     41.18%     82.35% |           0      0.00%     82.35% |           2     11.76%     94.12% |           1      5.88%    100.00% |           0      0.00%    100.00% |           0      0.00%    100.00% |           0      0.00%    100.00% |           0      0.00%    100.00% (Unspecified)
system.caches.RequestTypeMachineType.RMW_Read.Directory.miss_type_mach_latency_hist_seqr::total           17                       (Unspecified)
system.caches.controllers0.delayHistogram::samples         6660                       # delay_histogram (Unspecified)
system.caches.controllers0.delayHistogram::mean     0.080180                       # delay_histogram (Unspecified)
system.caches.controllers0.delayHistogram::stdev     0.689002                       # delay_histogram (Unspecified)
system.caches.controllers0.delayHistogram::0-1         6545     98.27%     98.27% # delay_histogram (Unspecified)
system.caches.controllers0.delayHistogram::2-3           37      0.56%     98.83% # delay_histogram (Unspecified)
system.caches.controllers0.delayHistogram::4-5           30      0.45%     99.28% # delay_histogram (Unspecified)
system.caches.controllers0.delayHistogram::6-7           27      0.41%     99.68% # delay_histogram (Unspecified)
system.caches.controllers0.delayHistogram::8-9           20      0.30%     99.98% # delay_histogram (Unspecified)
system.caches.controllers0.delayHistogram::18-19            1      0.02%    100.00% # delay_histogram (Unspecified)
system.caches.controllers0.delayHistogram::total         6660                       # delay_histogram (Unspecified)
system.caches.controllers0.cacheMemory.m_demand_hits        66203                       # Number of cache demand hits (Unspecified)
system.caches.controllers0.cacheMemory.m_demand_misses         3587                       # Number of cache demand misses (Unspecified)
system.caches.controllers0.cacheMemory.m_demand_accesses        69790                       # Number of cache demand accesses (Unspecified)
system.caches.controllers0.forwardToCache.m_buf_msgs     0.013824                       # Average number of messages in buffer (Unspecified)
system.caches.controllers0.forwardToCache.m_stall_time  4822.004669                       # Average number of cycles messages are stalled in this MB (Unspecified)
system.caches.controllers0.mandatoryQueue.m_buf_msgs     0.314929                       # Average number of messages in buffer (Unspecified)
system.caches.controllers0.mandatoryQueue.m_stall_time  1001.047798                       # Average number of cycles messages are stalled in this MB (Unspecified)
system.caches.controllers0.power_state.pwrStateResidencyTicks::UNDEFINED    222371000                       # Cumulative time (in ticks) in various power states (Tick)
system.caches.controllers0.requestFromCache.m_buf_msgs     0.059900                       # Average number of messages in buffer (Unspecified)
system.caches.controllers0.requestFromCache.m_stall_time  1999.973018                       # Average number of cycles messages are stalled in this MB (Unspecified)
system.caches.controllers0.responseToCache.m_buf_msgs     0.016126                       # Average number of messages in buffer (Unspecified)
system.caches.controllers0.responseToCache.m_stall_time  5002.860085                       # Average number of cycles messages are stalled in this MB (Unspecified)
system.caches.controllers1.forwardFromDir.m_buf_msgs     0.013824                       # Average number of messages in buffer (Unspecified)
system.caches.controllers1.forwardFromDir.m_stall_time   957.476470                       # Average number of cycles messages are stalled in this MB (Unspecified)
system.caches.controllers1.power_state.pwrStateResidencyTicks::UNDEFINED    222371000                       # Cumulative time (in ticks) in various power states (Tick)
system.caches.controllers1.requestToDir.m_buf_msgs     0.029950                       # Average number of messages in buffer (Unspecified)
system.caches.controllers1.requestToDir.m_stall_time  9720.485150                       # Average number of cycles messages are stalled in this MB (Unspecified)
system.caches.controllers1.requestToMemory.m_buf_msgs     0.029977                       # Average number of messages in buffer (Unspecified)
system.caches.controllers1.requestToMemory.m_stall_time  1000.472184                       # Average number of cycles messages are stalled in this MB (Unspecified)
system.caches.controllers1.responseFromDir.m_buf_msgs     0.016126                       # Average number of messages in buffer (Unspecified)
system.caches.controllers1.responseFromDir.m_stall_time   999.689708                       # Average number of cycles messages are stalled in this MB (Unspecified)
system.caches.controllers1.responseFromMemory.m_buf_msgs     0.035568                       # Average number of messages in buffer (Unspecified)
system.caches.controllers1.responseFromMemory.m_stall_time   999.694205                       # Average number of cycles messages are stalled in this MB (Unspecified)
system.caches.network.msg_count.Control          7172                       (Unspecified)
system.caches.network.msg_byte.Control          57376                       (Unspecified)
system.caches.network.msg_count.Data             6148                       (Unspecified)
system.caches.network.msg_byte.Data            442656                       (Unspecified)
system.caches.network.msg_count.Response_Data         7172                       (Unspecified)
system.caches.network.msg_byte.Response_Data       516384                       (Unspecified)
system.caches.network.msg_count.Writeback_Control         6148                       (Unspecified)
system.caches.network.msg_byte.Writeback_Control        49184                       (Unspecified)
system.caches.network.int_link_buffers2.m_buf_msgs     0.029950                       # Average number of messages in buffer (Unspecified)
system.caches.network.int_link_buffers2.m_stall_time  7720.647042                       # Average number of cycles messages are stalled in this MB (Unspecified)
system.caches.network.int_link_buffers8.m_buf_msgs     0.013824                       # Average number of messages in buffer (Unspecified)
system.caches.network.int_link_buffers8.m_stall_time  2907.114687                       # Average number of cycles messages are stalled in this MB (Unspecified)
system.caches.network.int_link_buffers9.m_buf_msgs     0.016126                       # Average number of messages in buffer (Unspecified)
system.caches.network.int_link_buffers9.m_stall_time  3003.543628                       # Average number of cycles messages are stalled in this MB (Unspecified)
system.caches.network.power_state.pwrStateResidencyTicks::UNDEFINED    222371000                       # Cumulative time (in ticks) in various power states (Tick)
system.caches.network.routers0.percent_links_utilized     7.487487                       (Unspecified)
system.caches.network.routers0.msg_count.Control::2         3586                       (Unspecified)
system.caches.network.routers0.msg_bytes.Control::2        28688                       (Unspecified)
system.caches.network.routers0.msg_count.Data::2         3074                       (Unspecified)
system.caches.network.routers0.msg_bytes.Data::2       221328                       (Unspecified)
system.caches.network.routers0.msg_count.Response_Data::4         3586                       (Unspecified)
system.caches.network.routers0.msg_bytes.Response_Data::4       258192                       (Unspecified)
system.caches.network.routers0.msg_count.Writeback_Control::3         3074                       (Unspecified)
system.caches.network.routers0.msg_bytes.Writeback_Control::3        24592                       (Unspecified)
system.caches.network.routers0.port_buffers3.m_buf_msgs     0.013824                       # Average number of messages in buffer (Unspecified)
system.caches.network.routers0.port_buffers3.m_stall_time  3864.564175                       # Average number of cycles messages are stalled in this MB (Unspecified)
system.caches.network.routers0.port_buffers4.m_buf_msgs     0.016126                       # Average number of messages in buffer (Unspecified)
system.caches.network.routers0.port_buffers4.m_stall_time  4003.206353                       # Average number of cycles messages are stalled in this MB (Unspecified)
system.caches.network.routers0.port_buffers7.m_buf_msgs     0.097504                       # Average number of messages in buffer (Unspecified)
system.caches.network.routers0.port_buffers7.m_stall_time  6720.714496                       # Average number of cycles messages are stalled in this MB (Unspecified)
system.caches.network.routers0.power_state.pwrStateResidencyTicks::UNDEFINED    222371000                       # Cumulative time (in ticks) in various power states (Tick)
system.caches.network.routers0.throttle00.link_utilization     7.947979                       (Unspecified)
system.caches.network.routers0.throttle00.msg_count.Response_Data::4         3586                       (Unspecified)
system.caches.network.routers0.throttle00.msg_bytes.Response_Data::4       258192                       (Unspecified)
system.caches.network.routers0.throttle00.msg_count.Writeback_Control::3         3074                       (Unspecified)
system.caches.network.routers0.throttle00.msg_bytes.Writeback_Control::3        24592                       (Unspecified)
system.caches.network.routers0.throttle01.link_utilization     7.026995                       (Unspecified)
system.caches.network.routers0.throttle01.msg_count.Control::2         3586                       (Unspecified)
system.caches.network.routers0.throttle01.msg_bytes.Control::2        28688                       (Unspecified)
system.caches.network.routers0.throttle01.msg_count.Data::2         3074                       (Unspecified)
system.caches.network.routers0.throttle01.msg_bytes.Data::2       221328                       (Unspecified)
system.caches.network.routers1.percent_links_utilized     7.487487                       (Unspecified)
system.caches.network.routers1.msg_count.Control::2         3586                       (Unspecified)
system.caches.network.routers1.msg_bytes.Control::2        28688                       (Unspecified)
system.caches.network.routers1.msg_count.Data::2         3074                       (Unspecified)
system.caches.network.routers1.msg_bytes.Data::2       221328                       (Unspecified)
system.caches.network.routers1.msg_count.Response_Data::4         3586                       (Unspecified)
system.caches.network.routers1.msg_bytes.Response_Data::4       258192                       (Unspecified)
system.caches.network.routers1.msg_count.Writeback_Control::3         3074                       (Unspecified)
system.caches.network.routers1.msg_bytes.Writeback_Control::3        24592                       (Unspecified)
system.caches.network.routers1.port_buffers2.m_buf_msgs     0.029950                       # Average number of messages in buffer (Unspecified)
system.caches.network.routers1.port_buffers2.m_stall_time  8720.570593                       # Average number of cycles messages are stalled in this MB (Unspecified)
system.caches.network.routers1.port_buffers6.m_buf_msgs     0.014935                       # Average number of messages in buffer (Unspecified)
system.caches.network.routers1.port_buffers6.m_stall_time  1949.656205                       # Average number of cycles messages are stalled in this MB (Unspecified)
system.caches.network.routers1.port_buffers7.m_buf_msgs     0.016216                       # Average number of messages in buffer (Unspecified)
system.caches.network.routers1.port_buffers7.m_stall_time  2003.871908                       # Average number of cycles messages are stalled in this MB (Unspecified)
system.caches.network.routers1.power_state.pwrStateResidencyTicks::UNDEFINED    222371000                       # Cumulative time (in ticks) in various power states (Tick)
system.caches.network.routers1.throttle00.link_utilization     7.026995                       (Unspecified)
system.caches.network.routers1.throttle00.msg_count.Control::2         3586                       (Unspecified)
system.caches.network.routers1.throttle00.msg_bytes.Control::2        28688                       (Unspecified)
system.caches.network.routers1.throttle00.msg_count.Data::2         3074                       (Unspecified)
system.caches.network.routers1.throttle00.msg_bytes.Data::2       221328                       (Unspecified)
system.caches.network.routers1.throttle01.link_utilization     7.947979                       (Unspecified)
system.caches.network.routers1.throttle01.msg_count.Response_Data::4         3586                       (Unspecified)
system.caches.network.routers1.throttle01.msg_bytes.Response_Data::4       258192                       (Unspecified)
system.caches.network.routers1.throttle01.msg_count.Writeback_Control::3         3074                       (Unspecified)
system.caches.network.routers1.throttle01.msg_bytes.Writeback_Control::3        24592                       (Unspecified)
system.caches.power_state.pwrStateResidencyTicks::UNDEFINED    222371000                       # Cumulative time (in ticks) in various power states (Tick)
system.caches.sequencers.power_state.pwrStateResidencyTicks::UNDEFINED    222371000                       # Cumulative time (in ticks) in various power states (Tick)
system.caches.sys_port_proxy.power_state.pwrStateResidencyTicks::UNDEFINED    222371000                       # Cumulative time (in ticks) in various power states (Tick)
system.clk_domain.clock                          1000                       # Clock period in ticks (Tick)
system.clk_domain.voltage_domain.voltage            1                       # Voltage in Volts (Volt)
system.cpu.numCycles                           222372                       # Number of cpu cycles simulated (Cycle)
system.cpu.numWorkItemsStarted                      0                       # Number of work items this cpu started (Count)
system.cpu.numWorkItemsCompleted                    0                       # Number of work items this cpu completed (Count)
system.cpu.instsAdded                          340521                       # Number of instructions added to the IQ (excludes non-spec) (Count)
system.cpu.nonSpecInstsAdded                        5                       # Number of non-speculative instructions added to the IQ (Count)
system.cpu.instsIssued                         303944                       # Number of instructions issued (Count)
system.cpu.squashedInstsIssued                    358                       # Number of squashed instructions issued (Count)
system.cpu.squashedInstsExamined               113129                       # Number of squashed instructions iterated over during squash; mainly for profiling (Count)
system.cpu.squashedOperandsExamined            159222                       # Number of squashed operands that are examined and possibly removed from graph (Count)
system.cpu.squashedNonSpecRemoved                   4                       # Number of squashed non-spec instructions that were removed (Count)
system.cpu.numIssuedDist::samples              191090                       # Number of insts issued each cycle (Count)
system.cpu.numIssuedDist::mean               1.590580                       # Number of insts issued each cycle (Count)
system.cpu.numIssuedDist::stdev              2.282920                       # Number of insts issued each cycle (Count)
system.cpu.numIssuedDist::underflows                0      0.00%      0.00% # Number of insts issued each cycle (Count)
system.cpu.numIssuedDist::0                    109482     57.29%     57.29% # Number of insts issued each cycle (Count)
system.cpu.numIssuedDist::1                     14670      7.68%     64.97% # Number of insts issued each cycle (Count)
system.cpu.numIssuedDist::2                     13268      6.94%     71.91% # Number of insts issued each cycle (Count)
system.cpu.numIssuedDist::3                     12432      6.51%     78.42% # Number of insts issued each cycle (Count)
system.cpu.numIssuedDist::4                     11883      6.22%     84.64% # Number of insts issued each cycle (Count)
system.cpu.numIssuedDist::5                     11023      5.77%     90.41% # Number of insts issued each cycle (Count)
system.cpu.numIssuedDist::6                      9342      4.89%     95.30% # Number of insts issued each cycle (Count)
system.cpu.numIssuedDist::7                      5177      2.71%     98.00% # Number of insts issued each cycle (Count)
system.cpu.numIssuedDist::8                      3813      2.00%    100.00% # Number of insts issued each cycle (Count)
system.cpu.numIssuedDist::overflows                 0      0.00%    100.00% # Number of insts issued each cycle (Count)
system.cpu.numIssuedDist::min_value                 0                       # Number of insts issued each cycle (Count)
system.cpu.numIssuedDist::max_value                 8                       # Number of insts issued each cycle (Count)
system.cpu.numIssuedDist::total                191090                       # Number of insts issued each cycle (Count)
system.cpu.statFuBusy::No_OpClass                   0      0.00%      0.00% # attempts to use FU when none available (Count)
system.cpu.statFuBusy::IntAlu                    3334     72.10%     72.10% # attempts to use FU when none available (Count)
system.cpu.statFuBusy::IntMult                      0      0.00%     72.10% # attempts to use FU when none available (Count)
system.cpu.statFuBusy::IntDiv                       0      0.00%     72.10% # attempts to use FU when none available (Count)
system.cpu.statFuBusy::FloatAdd                     0      0.00%     72.10% # attempts to use FU when none available (Count)
system.cpu.statFuBusy::FloatCmp                     0      0.00%     72.10% # attempts to use FU when none available (Count)
system.cpu.statFuBusy::FloatCvt                     0      0.00%     72.10% # attempts to use FU when none available (Count)
system.cpu.statFuBusy::FloatMult                    0      0.00%     72.10% # attempts to use FU when none available (Count)
system.cpu.statFuBusy::FloatMultAcc                 0      0.00%     72.10% # attempts to use FU when none available (Count)
system.cpu.statFuBusy::FloatDiv                     0      0.00%     72.10% # attempts to use FU when none available (Count)
system.cpu.statFuBusy::FloatMisc                    0      0.00%     72.10% # attempts to use FU when none available (Count)
system.cpu.statFuBusy::FloatSqrt                    0      0.00%     72.10% # attempts to use FU when none available (Count)
system.cpu.statFuBusy::SimdAdd                      0      0.00%     72.10% # attempts to use FU when none available (Count)
system.cpu.statFuBusy::SimdAddAcc                   0      0.00%     72.10% # attempts to use FU when none available (Count)
system.cpu.statFuBusy::SimdAlu                     24      0.52%     72.62% # attempts to use FU when none available (Count)
system.cpu.statFuBusy::SimdCmp                      0      0.00%     72.62% # attempts to use FU when none available (Count)
system.cpu.statFuBusy::SimdCvt                      8      0.17%     72.79% # attempts to use FU when none available (Count)
system.cpu.statFuBusy::SimdMisc                     1      0.02%     72.82% # attempts to use FU when none available (Count)
system.cpu.statFuBusy::SimdMult                     0      0.00%     72.82% # attempts to use FU when none available (Count)
system.cpu.statFuBusy::SimdMultAcc                  0      0.00%     72.82% # attempts to use FU when none available (Count)
system.cpu.statFuBusy::SimdShift                   21      0.45%     73.27% # attempts to use FU when none available (Count)
system.cpu.statFuBusy::SimdShiftAcc                 0      0.00%     73.27% # attempts to use FU when none available (Count)
system.cpu.statFuBusy::SimdDiv                      0      0.00%     73.27% # attempts to use FU when none available (Count)
system.cpu.statFuBusy::SimdSqrt                     0      0.00%     73.27% # attempts to use FU when none available (Count)
system.cpu.statFuBusy::SimdFloatAdd                 0      0.00%     73.27% # attempts to use FU when none available (Count)
system.cpu.statFuBusy::SimdFloatAlu                 0      0.00%     73.27% # attempts to use FU when none available (Count)
system.cpu.statFuBusy::SimdFloatCmp                 0      0.00%     73.27% # attempts to use FU when none available (Count)
system.cpu.statFuBusy::SimdFloatCvt                 0      0.00%     73.27% # attempts to use FU when none available (Count)
system.cpu.statFuBusy::SimdFloatDiv                 0      0.00%     73.27% # attempts to use FU when none available (Count)
system.cpu.statFuBusy::SimdFloatMisc                0      0.00%     73.27% # attempts to use FU when none available (Count)
system.cpu.statFuBusy::SimdFloatMult                0      0.00%     73.27% # attempts to use FU when none available (Count)
system.cpu.statFuBusy::SimdFloatMultAcc             0      0.00%     73.27% # attempts to use FU when none available (Count)
system.cpu.statFuBusy::SimdFloatSqrt                0      0.00%     73.27% # attempts to use FU when none available (Count)
system.cpu.statFuBusy::SimdReduceAdd                0      0.00%     73.27% # attempts to use FU when none available (Count)
system.cpu.statFuBusy::SimdReduceAlu                0      0.00%     73.27% # attempts to use FU when none available (Count)
system.cpu.statFuBusy::SimdReduceCmp                0      0.00%     73.27% # attempts to use FU when none available (Count)
system.cpu.statFuBusy::SimdFloatReduceAdd            0      0.00%     73.27% # attempts to use FU when none available (Count)
system.cpu.statFuBusy::SimdFloatReduceCmp            0      0.00%     73.27% # attempts to use FU when none available (Count)
system.cpu.statFuBusy::SimdAes                      0      0.00%     73.27% # attempts to use FU when none available (Count)
system.cpu.statFuBusy::SimdAesMix                   0      0.00%     73.27% # attempts to use FU when none available (Count)
system.cpu.statFuBusy::SimdSha1Hash                 0      0.00%     73.27% # attempts to use FU when none available (Count)
system.cpu.statFuBusy::SimdSha1Hash2                0      0.00%     73.27% # attempts to use FU when none available (Count)
system.cpu.statFuBusy::SimdSha256Hash               0      0.00%     73.27% # attempts to use FU when none available (Count)
system.cpu.statFuBusy::SimdSha256Hash2              0      0.00%     73.27% # attempts to use FU when none available (Count)
system.cpu.statFuBusy::SimdShaSigma2                0      0.00%     73.27% # attempts to use FU when none available (Count)
system.cpu.statFuBusy::SimdShaSigma3                0      0.00%     73.27% # attempts to use FU when none available (Count)
system.cpu.statFuBusy::SimdPredAlu                  0      0.00%     73.27% # attempts to use FU when none available (Count)
system.cpu.statFuBusy::MemRead                    765     16.54%     89.81% # attempts to use FU when none available (Count)
system.cpu.statFuBusy::MemWrite                   433      9.36%     99.18% # attempts to use FU when none available (Count)
system.cpu.statFuBusy::FloatMemRead                14      0.30%     99.48% # attempts to use FU when none available (Count)
system.cpu.statFuBusy::FloatMemWrite               24      0.52%    100.00% # attempts to use FU when none available (Count)
system.cpu.statFuBusy::IprAccess                    0      0.00%    100.00% # attempts to use FU when none available (Count)
system.cpu.statFuBusy::InstPrefetch                 0      0.00%    100.00% # attempts to use FU when none available (Count)
system.cpu.statIssuedInstType_0::No_OpClass         3325      1.09%      1.09% # Number of instructions issued per FU type, per thread (Count)
system.cpu.statIssuedInstType_0::IntAlu        226354     74.47%     75.57% # Number of instructions issued per FU type, per thread (Count)
system.cpu.statIssuedInstType_0::IntMult           23      0.01%     75.57% # Number of instructions issued per FU type, per thread (Count)
system.cpu.statIssuedInstType_0::IntDiv          1990      0.65%     76.23% # Number of instructions issued per FU type, per thread (Count)
system.cpu.statIssuedInstType_0::FloatAdd          659      0.22%     76.45% # Number of instructions issued per FU type, per thread (Count)
system.cpu.statIssuedInstType_0::FloatCmp            0      0.00%     76.45% # Number of instructions issued per FU type, per thread (Count)
system.cpu.statIssuedInstType_0::FloatCvt            0      0.00%     76.45% # Number of instructions issued per FU type, per thread (Count)
system.cpu.statIssuedInstType_0::FloatMult            0      0.00%     76.45% # Number of instructions issued per FU type, per thread (Count)
system.cpu.statIssuedInstType_0::FloatMultAcc            0      0.00%     76.45% # Number of instructions issued per FU type, per thread (Count)
system.cpu.statIssuedInstType_0::FloatDiv            0      0.00%     76.45% # Number of instructions issued per FU type, per thread (Count)
system.cpu.statIssuedInstType_0::FloatMisc            0      0.00%     76.45% # Number of instructions issued per FU type, per thread (Count)
system.cpu.statIssuedInstType_0::FloatSqrt            0      0.00%     76.45% # Number of instructions issued per FU type, per thread (Count)
system.cpu.statIssuedInstType_0::SimdAdd          757      0.25%     76.69% # Number of instructions issued per FU type, per thread (Count)
system.cpu.statIssuedInstType_0::SimdAddAcc            0      0.00%     76.69% # Number of instructions issued per FU type, per thread (Count)
system.cpu.statIssuedInstType_0::SimdAlu         1917      0.63%     77.33% # Number of instructions issued per FU type, per thread (Count)
system.cpu.statIssuedInstType_0::SimdCmp            0      0.00%     77.33% # Number of instructions issued per FU type, per thread (Count)
system.cpu.statIssuedInstType_0::SimdCvt         1790      0.59%     77.91% # Number of instructions issued per FU type, per thread (Count)
system.cpu.statIssuedInstType_0::SimdMisc         1297      0.43%     78.34% # Number of instructions issued per FU type, per thread (Count)
system.cpu.statIssuedInstType_0::SimdMult            0      0.00%     78.34% # Number of instructions issued per FU type, per thread (Count)
system.cpu.statIssuedInstType_0::SimdMultAcc            0      0.00%     78.34% # Number of instructions issued per FU type, per thread (Count)
system.cpu.statIssuedInstType_0::SimdShift          617      0.20%     78.54% # Number of instructions issued per FU type, per thread (Count)
system.cpu.statIssuedInstType_0::SimdShiftAcc            0      0.00%     78.54% # Number of instructions issued per FU type, per thread (Count)
system.cpu.statIssuedInstType_0::SimdDiv            0      0.00%     78.54% # Number of instructions issued per FU type, per thread (Count)
system.cpu.statIssuedInstType_0::SimdSqrt            0      0.00%     78.54% # Number of instructions issued per FU type, per thread (Count)
system.cpu.statIssuedInstType_0::SimdFloatAdd            0      0.00%     78.54% # Number of instructions issued per FU type, per thread (Count)
system.cpu.statIssuedInstType_0::SimdFloatAlu            0      0.00%     78.54% # Number of instructions issued per FU type, per thread (Count)
system.cpu.statIssuedInstType_0::SimdFloatCmp            0      0.00%     78.54% # Number of instructions issued per FU type, per thread (Count)
system.cpu.statIssuedInstType_0::SimdFloatCvt            0      0.00%     78.54% # Number of instructions issued per FU type, per thread (Count)
system.cpu.statIssuedInstType_0::SimdFloatDiv            0      0.00%     78.54% # Number of instructions issued per FU type, per thread (Count)
system.cpu.statIssuedInstType_0::SimdFloatMisc            0      0.00%     78.54% # Number of instructions issued per FU type, per thread (Count)
system.cpu.statIssuedInstType_0::SimdFloatMult            0      0.00%     78.54% # Number of instructions issued per FU type, per thread (Count)
system.cpu.statIssuedInstType_0::SimdFloatMultAcc            0      0.00%     78.54% # Number of instructions issued per FU type, per thread (Count)
system.cpu.statIssuedInstType_0::SimdFloatSqrt            0      0.00%     78.54% # Number of instructions issued per FU type, per thread (Count)
system.cpu.statIssuedInstType_0::SimdReduceAdd            0      0.00%     78.54% # Number of instructions issued per FU type, per thread (Count)
system.cpu.statIssuedInstType_0::SimdReduceAlu            0      0.00%     78.54% # Number of instructions issued per FU type, per thread (Count)
system.cpu.statIssuedInstType_0::SimdReduceCmp            0      0.00%     78.54% # Number of instructions issued per FU type, per thread (Count)
system.cpu.statIssuedInstType_0::SimdFloatReduceAdd            0      0.00%     78.54% # Number of instructions issued per FU type, per thread (Count)
system.cpu.statIssuedInstType_0::SimdFloatReduceCmp            0      0.00%     78.54% # Number of instructions issued per FU type, per thread (Count)
system.cpu.statIssuedInstType_0::SimdAes            0      0.00%     78.54% # Number of instructions issued per FU type, per thread (Count)
system.cpu.statIssuedInstType_0::SimdAesMix            0      0.00%     78.54% # Number of instructions issued per FU type, per thread (Count)
system.cpu.statIssuedInstType_0::SimdSha1Hash            0      0.00%     78.54% # Number of instructions issued per FU type, per thread (Count)
system.cpu.statIssuedInstType_0::SimdSha1Hash2            0      0.00%     78.54% # Number of instructions issued per FU type, per thread (Count)
system.cpu.statIssuedInstType_0::SimdSha256Hash            0      0.00%     78.54% # Number of instructions issued per FU type, per thread (Count)
system.cpu.statIssuedInstType_0::SimdSha256Hash2            0      0.00%     78.54% # Number of instructions issued per FU type, per thread (Count)
system.cpu.statIssuedInstType_0::SimdShaSigma2            0      0.00%     78.54% # Number of instructions issued per FU type, per thread (Count)
system.cpu.statIssuedInstType_0::SimdShaSigma3            0      0.00%     78.54% # Number of instructions issued per FU type, per thread (Count)
system.cpu.statIssuedInstType_0::SimdPredAlu            0      0.00%     78.54% # Number of instructions issued per FU type, per thread (Count)
system.cpu.statIssuedInstType_0::MemRead        43794     14.41%     92.95% # Number of instructions issued per FU type, per thread (Count)
system.cpu.statIssuedInstType_0::MemWrite        17662      5.81%     98.76% # Number of instructions issued per FU type, per thread (Count)
system.cpu.statIssuedInstType_0::FloatMemRead         2491      0.82%     99.58% # Number of instructions issued per FU type, per thread (Count)
system.cpu.statIssuedInstType_0::FloatMemWrite         1268      0.42%    100.00% # Number of instructions issued per FU type, per thread (Count)
system.cpu.statIssuedInstType_0::IprAccess            0      0.00%    100.00% # Number of instructions issued per FU type, per thread (Count)
system.cpu.statIssuedInstType_0::InstPrefetch            0      0.00%    100.00% # Number of instructions issued per FU type, per thread (Count)
system.cpu.statIssuedInstType_0::total         303944                       # Number of instructions issued per FU type, per thread (Count)
system.cpu.issueRate                         1.366827                       # Inst issue rate ((Count/Cycle))
system.cpu.fuBusy                                4624                       # FU busy when requested (Count)
system.cpu.fuBusyRate                        0.015213                       # FU busy rate (busy events/executed inst) ((Count/Count))
system.cpu.intInstQueueReads                   781590                       # Number of integer instruction queue reads (Count)
system.cpu.intInstQueueWrites                  434178                       # Number of integer instruction queue writes (Count)
system.cpu.intInstQueueWakeupAccesses          284148                       # Number of integer instruction queue wakeup accesses (Count)
system.cpu.fpInstQueueReads                     22365                       # Number of floating instruction queue reads (Count)
system.cpu.fpInstQueueWrites                    19534                       # Number of floating instruction queue writes (Count)
system.cpu.fpInstQueueWakeupAccesses            10498                       # Number of floating instruction queue wakeup accesses (Count)
system.cpu.vecInstQueueReads                        0                       # Number of vector instruction queue reads (Count)
system.cpu.vecInstQueueWrites                       0                       # Number of vector instruction queue writes (Count)
system.cpu.vecInstQueueWakeupAccesses               0                       # Number of vector instruction queue wakeup accesses (Count)
system.cpu.intAluAccesses                      294040                       # Number of integer alu accesses (Count)
system.cpu.fpAluAccesses                        11203                       # Number of floating point alu accesses (Count)
system.cpu.vecAluAccesses                           0                       # Number of vector alu accesses (Count)
system.cpu.idleCycles                               0                       # Number of cycles IEW is idle (Cycle)
system.cpu.squashCycles                          2585                       # Number of cycles IEW is squashing (Cycle)
system.cpu.blockCycles                          48996                       # Number of cycles IEW is blocking (Cycle)
system.cpu.unblockCycles                         3406                       # Number of cycles IEW is unblocking (Cycle)
system.cpu.dispatchedInsts                     340526                       # Number of instructions dispatched to IQ (Count)
system.cpu.dispSquashedInsts                      453                       # Number of squashed instructions skipped by dispatch (Count)
system.cpu.dispLoadInsts                        48095                       # Number of dispatched load instructions (Count)
system.cpu.dispStoreInsts                       21087                       # Number of dispatched store instructions (Count)
system.cpu.dispNonSpecInsts                         5                       # Number of dispatched non-speculative instructions (Count)
system.cpu.iqFullEvents                           871                       # Number of times the IQ has become full, causing a stall (Count)
system.cpu.lsqFullEvents                         2143                       # Number of times the LSQ has become full, causing a stall (Count)
system.cpu.memOrderViolationEvents                 64                       # Number of memory order violations (Count)
system.cpu.predictedTakenIncorrect                559                       # Number of branches that were predicted taken incorrectly (Count)
system.cpu.predictedNotTakenIncorrect            2308                       # Number of branches that were predicted not taken incorrectly (Count)
system.cpu.branchMispredicts                     2867                       # Number of branch mispredicts detected at execute (Count)
system.cpu.numInsts                            299317                       # Number of executed instructions (Count)
system.cpu.numLoadInsts                         45231                       # Number of load instructions executed (Count)
system.cpu.numSquashedInsts                      4622                       # Number of squashed instructions skipped in execute (Count)
system.cpu.numSwp                                   0                       # Number of swp insts executed (Count)
system.cpu.numNop                                   0                       # Number of nop insts executed (Count)
system.cpu.numRefs                              63736                       # Number of memory reference insts executed (Count)
system.cpu.numBranches                          28124                       # Number of branches executed (Count)
system.cpu.numStoreInsts                        18505                       # Number of stores executed (Count)
system.cpu.numRate                           1.346019                       # Inst execution rate ((Count/Cycle))
system.cpu.instsToCommit                       296154                       # Cumulative count of insts sent to commit (Count)
system.cpu.writebackCount                      294646                       # Cumulative count of insts written-back (Count)
system.cpu.producerInst                        221829                       # Number of instructions producing a value (Count)
system.cpu.consumerInst                        386950                       # Number of instructions consuming a value (Count)
system.cpu.wbRate                            1.325014                       # Insts written-back per cycle ((Count/Cycle))
system.cpu.wbFanout                          0.573276                       # Average fanout of values written-back ((Count/Count))
system.cpu.timesIdled                             769                       # Number of times that the entire CPU went into an idle state and unscheduled itself (Count)
system.cpu.idleCycles                           31282                       # Total number of cycles that the CPU has spent unscheduled due to idling (Cycle)
system.cpu.committedInsts                      123064                       # Number of Instructions Simulated (Count)
system.cpu.committedOps                        227381                       # Number of Ops (including micro ops) Simulated (Count)
system.cpu.cpi                               1.806962                       # CPI: Cycles Per Instruction ((Cycle/Count))
system.cpu.totalCpi                          1.806962                       # CPI: Total CPI of All Threads ((Cycle/Count))
system.cpu.ipc                               0.553415                       # IPC: Instructions Per Cycle ((Count/Cycle))
system.cpu.totalIpc                          0.553415                       # IPC: Total IPC of All Threads ((Count/Cycle))
system.cpu.intRegfileReads                     440882                       # Number of integer regfile reads (Count)
system.cpu.intRegfileWrites                    241173                       # Number of integer regfile writes (Count)
system.cpu.fpRegfileReads                       15719                       # Number of floating regfile reads (Count)
system.cpu.fpRegfileWrites                       8495                       # Number of floating regfile writes (Count)
system.cpu.ccRegfileReads                      160005                       # number of cc regfile reads (Count)
system.cpu.ccRegfileWrites                     103429                       # number of cc regfile writes (Count)
system.cpu.miscRegfileReads                    123510                       # number of misc regfile reads (Count)
system.cpu.MemDepUnit__0.insertedLoads          48095                       # Number of loads inserted to the mem dependence unit. (Count)
system.cpu.MemDepUnit__0.insertedStores         21087                       # Number of stores inserted to the mem dependence unit. (Count)
system.cpu.MemDepUnit__0.conflictingLoads         1189                       # Number of conflicting loads. (Count)
system.cpu.MemDepUnit__0.conflictingStores          662                       # Number of conflicting stores. (Count)
system.cpu.MemDepUnit__1.insertedLoads              0                       # Number of loads inserted to the mem dependence unit. (Count)
system.cpu.MemDepUnit__1.insertedStores             0                       # Number of stores inserted to the mem dependence unit. (Count)
system.cpu.MemDepUnit__1.conflictingLoads            0                       # Number of conflicting loads. (Count)
system.cpu.MemDepUnit__1.conflictingStores            0                       # Number of conflicting stores. (Count)
system.cpu.MemDepUnit__2.insertedLoads              0                       # Number of loads inserted to the mem dependence unit. (Count)
system.cpu.MemDepUnit__2.insertedStores             0                       # Number of stores inserted to the mem dependence unit. (Count)
system.cpu.MemDepUnit__2.conflictingLoads            0                       # Number of conflicting loads. (Count)
system.cpu.MemDepUnit__2.conflictingStores            0                       # Number of conflicting stores. (Count)
system.cpu.MemDepUnit__3.insertedLoads              0                       # Number of loads inserted to the mem dependence unit. (Count)
system.cpu.MemDepUnit__3.insertedStores             0                       # Number of stores inserted to the mem dependence unit. (Count)
system.cpu.MemDepUnit__3.conflictingLoads            0                       # Number of conflicting loads. (Count)
system.cpu.MemDepUnit__3.conflictingStores            0                       # Number of conflicting stores. (Count)
system.cpu.branchPred.lookups                   39959                       # Number of BP lookups (Count)
system.cpu.branchPred.condPredicted             33555                       # Number of conditional branches predicted (Count)
system.cpu.branchPred.condIncorrect              2724                       # Number of conditional branches incorrect (Count)
system.cpu.branchPred.BTBLookups                15628                       # Number of BTB lookups (Count)
system.cpu.branchPred.BTBHits                   13929                       # Number of BTB hits (Count)
system.cpu.branchPred.BTBHitRatio            0.891285                       # BTB Hit Ratio (Ratio)
system.cpu.branchPred.RASUsed                    1736                       # Number of times the RAS was used to get a target. (Count)
system.cpu.branchPred.RASIncorrect                  3                       # Number of incorrect RAS predictions. (Count)
[...]
system.mem_ctrl.wrQLenPdf::62                       0                       # What write queue length does an incoming req see (Count)
system.mem_ctrl.wrQLenPdf::63                       0                       # What write queue length does an incoming req see (Count)
system.mem_ctrl.rdPerTurnAround::samples           43                       # Reads before turning the bus around for writes (Count)
system.mem_ctrl.rdPerTurnAround::mean       15.627907                       # Reads before turning the bus around for writes (Count)
system.mem_ctrl.rdPerTurnAround::gmean      15.545561                       # Reads before turning the bus around for writes (Count)
system.mem_ctrl.rdPerTurnAround::stdev       1.397672                       # Reads before turning the bus around for writes (Count)
system.mem_ctrl.rdPerTurnAround::9                  1      2.33%      2.33% # Reads before turning the bus around for writes (Count)
system.mem_ctrl.rdPerTurnAround::10                 1      2.33%      4.65% # Reads before turning the bus around for writes (Count)
system.mem_ctrl.rdPerTurnAround::15                 3      6.98%     11.63% # Reads before turning the bus around for writes (Count)
system.mem_ctrl.rdPerTurnAround::16                38     88.37%    100.00% # Reads before turning the bus around for writes (Count)
system.mem_ctrl.rdPerTurnAround::total             43                       # Reads before turning the bus around for writes (Count)
system.mem_ctrl.wrPerTurnAround::samples           43                       # Writes before turning the bus around for reads (Count)
system.mem_ctrl.wrPerTurnAround::mean       16.046512                       # Writes before turning the bus around for reads (Count)
system.mem_ctrl.wrPerTurnAround::gmean      16.043886                       # Writes before turning the bus around for reads (Count)
system.mem_ctrl.wrPerTurnAround::stdev       0.304997                       # Writes before turning the bus around for reads (Count)
system.mem_ctrl.wrPerTurnAround::16                42     97.67%     97.67% # Writes before turning the bus around for reads (Count)
system.mem_ctrl.wrPerTurnAround::18                 1      2.33%    100.00% # Writes before turning the bus around for reads (Count)
system.mem_ctrl.wrPerTurnAround::total             43                       # Writes before turning the bus around for reads (Count)
system.mem_ctrl.bytesReadWrQ                     1088                       # Total number of bytes read from write queue (Byte)
system.mem_ctrl.bytesReadSys                    43712                       # Total read bytes from the system interface side (Byte)
system.mem_ctrl.bytesWrittenSys                 43712                       # Total written bytes from the system interface side (Byte)
system.mem_ctrl.avgRdBWSys               76009897.70172305                       # Average system read bandwidth in Byte/s ((Byte/Second))
system.mem_ctrl.avgWrBWSys               76009897.70172305                       # Average system write bandwidth in Byte/s ((Byte/Second))
system.mem_ctrl.totGap                      720903000                       # Total gap between requests (Tick)
system.mem_ctrl.avgGap                      527747.44                       # Average gap between requests ((Tick/Count))
system.mem_ctrl.requestorReadBytes::caches.controllers1        42624                       # Per-requestor bytes read from memory (Byte)
system.mem_ctrl.requestorWriteBytes::caches.controllers1        44160                       # Per-requestor bytes write to memory (Byte)
system.mem_ctrl.requestorReadRate::caches.controllers1 74117996.880450293422                       # Per-requestor bytes read from memory rate ((Byte/Second))
system.mem_ctrl.requestorWriteRate::caches.controllers1 76788915.686953008175                       # Per-requestor bytes write to memory rate ((Byte/Second))
system.mem_ctrl.requestorReadAccesses::caches.controllers1          683                       # Per-requestor read serviced memory accesses (Count)
system.mem_ctrl.requestorWriteAccesses::caches.controllers1          683                       # Per-requestor write serviced memory accesses (Count)
system.mem_ctrl.requestorReadTotalLat::caches.controllers1     26419500                       # Per-requestor read total memory access latency (Tick)
system.mem_ctrl.requestorWriteTotalLat::caches.controllers1  22675659250                       # Per-requestor write total memory access latency (Tick)
system.mem_ctrl.requestorReadAvgLat::caches.controllers1     38681.55                       # Per-requestor read average memory access latency ((Tick/Count))
system.mem_ctrl.requestorWriteAvgLat::caches.controllers1  33200086.75                       # Per-requestor write average memory access latency ((Tick/Count))
system.mem_ctrl.dram.bytesRead::caches.controllers1        43712                       # Number of bytes read from this memory (Byte)
system.mem_ctrl.dram.bytesRead::total           43712                       # Number of bytes read from this memory (Byte)
system.mem_ctrl.dram.bytesWritten::caches.controllers1        43712                       # Number of bytes written to this memory (Byte)
system.mem_ctrl.dram.bytesWritten::total        43712                       # Number of bytes written to this memory (Byte)
system.mem_ctrl.dram.numReads::caches.controllers1          683                       # Number of read requests responded to by this memory (Count)
system.mem_ctrl.dram.numReads::total              683                       # Number of read requests responded to by this memory (Count)
system.mem_ctrl.dram.numWrites::caches.controllers1          683                       # Number of write requests responded to by this memory (Count)
system.mem_ctrl.dram.numWrites::total             683                       # Number of write requests responded to by this memory (Count)
system.mem_ctrl.dram.bwRead::caches.controllers1     76009898                       # Total read bandwidth from this memory ((Byte/Second))
system.mem_ctrl.dram.bwRead::total           76009898                       # Total read bandwidth from this memory ((Byte/Second))
system.mem_ctrl.dram.bwWrite::caches.controllers1     76009898                       # Write bandwidth from this memory ((Byte/Second))
system.mem_ctrl.dram.bwWrite::total          76009898                       # Write bandwidth from this memory ((Byte/Second))
system.mem_ctrl.dram.bwTotal::caches.controllers1    152019795                       # Total bandwidth to/from this memory ((Byte/Second))
system.mem_ctrl.dram.bwTotal::total         152019795                       # Total bandwidth to/from this memory ((Byte/Second))
system.mem_ctrl.dram.readBursts                   666                       # Number of DRAM read bursts (Count)
system.mem_ctrl.dram.writeBursts                  690                       # Number of DRAM write bursts (Count)
system.mem_ctrl.dram.perBankRdBursts::0            34                       # Per bank write bursts (Count)
system.mem_ctrl.dram.perBankRdBursts::1            20                       # Per bank write bursts (Count)
system.mem_ctrl.dram.perBankRdBursts::2            58                       # Per bank write bursts (Count)
system.mem_ctrl.dram.perBankRdBursts::3           146                       # Per bank write bursts (Count)
system.mem_ctrl.dram.perBankRdBursts::4            61                       # Per bank write bursts (Count)
system.mem_ctrl.dram.perBankRdBursts::5            40                       # Per bank write bursts (Count)
system.mem_ctrl.dram.perBankRdBursts::6            17                       # Per bank write bursts (Count)
system.mem_ctrl.dram.perBankRdBursts::7             5                       # Per bank write bursts (Count)
system.mem_ctrl.dram.perBankRdBursts::8            24                       # Per bank write bursts (Count)
system.mem_ctrl.dram.perBankRdBursts::9            28                       # Per bank write bursts (Count)
system.mem_ctrl.dram.perBankRdBursts::10           18                       # Per bank write bursts (Count)
system.mem_ctrl.dram.perBankRdBursts::11          109                       # Per bank write bursts (Count)
system.mem_ctrl.dram.perBankRdBursts::12           19                       # Per bank write bursts (Count)
system.mem_ctrl.dram.perBankRdBursts::13           13                       # Per bank write bursts (Count)
system.mem_ctrl.dram.perBankRdBursts::14           40                       # Per bank write bursts (Count)
system.mem_ctrl.dram.perBankRdBursts::15           34                       # Per bank write bursts (Count)
system.mem_ctrl.dram.perBankWrBursts::0           128                       # Per bank write bursts (Count)
system.mem_ctrl.dram.perBankWrBursts::1           125                       # Per bank write bursts (Count)
system.mem_ctrl.dram.perBankWrBursts::2           123                       # Per bank write bursts (Count)
system.mem_ctrl.dram.perBankWrBursts::3            72                       # Per bank write bursts (Count)
system.mem_ctrl.dram.perBankWrBursts::4             2                       # Per bank write bursts (Count)
system.mem_ctrl.dram.perBankWrBursts::5             4                       # Per bank write bursts (Count)
system.mem_ctrl.dram.perBankWrBursts::6             2                       # Per bank write bursts (Count)
system.mem_ctrl.dram.perBankWrBursts::7             1                       # Per bank write bursts (Count)
system.mem_ctrl.dram.perBankWrBursts::8             2                       # Per bank write bursts (Count)
system.mem_ctrl.dram.perBankWrBursts::9             1                       # Per bank write bursts (Count)
system.mem_ctrl.dram.perBankWrBursts::10            0                       # Per bank write bursts (Count)
system.mem_ctrl.dram.perBankWrBursts::11           42                       # Per bank write bursts (Count)
system.mem_ctrl.dram.perBankWrBursts::12           23                       # Per bank write bursts (Count)
system.mem_ctrl.dram.perBankWrBursts::13            2                       # Per bank write bursts (Count)
system.mem_ctrl.dram.perBankWrBursts::14           27                       # Per bank write bursts (Count)
system.mem_ctrl.dram.perBankWrBursts::15          136                       # Per bank write bursts (Count)
system.mem_ctrl.dram.totQLat                 13932000                       # Total ticks spent queuing (Tick)
system.mem_ctrl.dram.totBusLat                3330000                       # Total ticks spent in databus transfers (Tick)
system.mem_ctrl.dram.totMemAccLat            26419500                       # Total ticks spent from burst creation until serviced by the DRAM (Tick)
system.mem_ctrl.dram.avgQLat                 20918.92                       # Average queueing delay per DRAM burst ((Tick/Count))
system.mem_ctrl.dram.avgBusLat                5000.00                       # Average bus latency per DRAM burst ((Tick/Count))
system.mem_ctrl.dram.avgMemAccLat            39668.92                       # Average memory access latency per DRAM burst ((Tick/Count))
system.mem_ctrl.dram.readRowHits                  519                       # Number of row buffer hits during reads (Count)
system.mem_ctrl.dram.writeRowHits                 596                       # Number of row buffer hits during writes (Count)
system.mem_ctrl.dram.readRowHitRate             77.93                       # Row buffer hit rate for reads (Ratio)
system.mem_ctrl.dram.writeRowHitRate            86.38                       # Row buffer hit rate for writes (Ratio)
system.mem_ctrl.dram.bytesPerActivate::samples          227                       # Bytes accessed per row activation (Byte)
system.mem_ctrl.dram.bytesPerActivate::mean   373.004405                       # Bytes accessed per row activation (Byte)
system.mem_ctrl.dram.bytesPerActivate::gmean   229.281066                       # Bytes accessed per row activation (Byte)
system.mem_ctrl.dram.bytesPerActivate::stdev   352.714950                       # Bytes accessed per row activation (Byte)
system.mem_ctrl.dram.bytesPerActivate::0-127           61     26.87%     26.87% # Bytes accessed per row activation (Byte)
system.mem_ctrl.dram.bytesPerActivate::128-255           56     24.67%     51.54% # Bytes accessed per row activation (Byte)
system.mem_ctrl.dram.bytesPerActivate::256-383           25     11.01%     62.56% # Bytes accessed per row activation (Byte)
system.mem_ctrl.dram.bytesPerActivate::384-511           24     10.57%     73.13% # Bytes accessed per row activation (Byte)
system.mem_ctrl.dram.bytesPerActivate::512-639            8      3.52%     76.65% # Bytes accessed per row activation (Byte)
system.mem_ctrl.dram.bytesPerActivate::640-767            4      1.76%     78.41% # Bytes accessed per row activation (Byte)
system.mem_ctrl.dram.bytesPerActivate::768-895            6      2.64%     81.06% # Bytes accessed per row activation (Byte)
system.mem_ctrl.dram.bytesPerActivate::896-1023            6      2.64%     83.70% # Bytes accessed per row activation (Byte)
system.mem_ctrl.dram.bytesPerActivate::1024-1151           37     16.30%    100.00% # Bytes accessed per row activation (Byte)
system.mem_ctrl.dram.bytesPerActivate::total          227                       # Bytes accessed per row activation (Byte)
system.mem_ctrl.dram.bytesRead                  42624                       # Total number of bytes read from DRAM (Byte)
system.mem_ctrl.dram.bytesWritten               44160                       # Total number of bytes written to DRAM (Byte)
system.mem_ctrl.dram.avgRdBW                74.117997                       # Average DRAM read bandwidth in MiBytes/s ((Byte/Second))
system.mem_ctrl.dram.avgWrBW                76.788916                       # Average DRAM write bandwidth in MiBytes/s ((Byte/Second))
system.mem_ctrl.dram.peakBW                  12800.00                       # Theoretical peak bandwidth in MiByte/s ((Byte/Second))
system.mem_ctrl.dram.busUtil                     1.18                       # Data bus utilization in percentage (Ratio)
system.mem_ctrl.dram.busUtilRead                 0.58                       # Data bus utilization in percentage for reads (Ratio)
system.mem_ctrl.dram.busUtilWrite                0.60                       # Data bus utilization in percentage for writes (Ratio)
system.mem_ctrl.dram.pageHitRate                82.23                       # Row buffer hit rate, read and write combined (Ratio)
system.mem_ctrl.dram.power_state.pwrStateResidencyTicks::UNDEFINED    575083000                       # Cumulative time (in ticks) in various power states (Tick)
system.mem_ctrl.dram.rank0.actEnergy           913920                       # Energy for activate commands per rank (pJ) (Joule)
system.mem_ctrl.dram.rank0.preEnergy           455400                       # Energy for precharge commands per rank (pJ) (Joule)
system.mem_ctrl.dram.rank0.readEnergy         2720340                       # Energy for read commands per rank (pJ) (Joule)
system.mem_ctrl.dram.rank0.writeEnergy        2385540                       # Energy for write commands per rank (pJ) (Joule)
system.mem_ctrl.dram.rank0.refreshEnergy 45483360.000000                       # Energy for refresh commands per rank (pJ) (Joule)
system.mem_ctrl.dram.rank0.actBackEnergy     38032680                       # Energy for active background per rank (pJ) (Joule)
system.mem_ctrl.dram.rank0.preBackEnergy    188804640                       # Energy for precharge background per rank (pJ) (Joule)
system.mem_ctrl.dram.rank0.actPowerDownEnergy            0                       # Energy for active power-down per rank (pJ) (Joule)
system.mem_ctrl.dram.rank0.prePowerDownEnergy            0                       # Energy for precharge power-down per rank (pJ) (Joule)
system.mem_ctrl.dram.rank0.selfRefreshEnergy            0                       # Energy for self refresh per rank (pJ) (Joule)
system.mem_ctrl.dram.rank0.totalEnergy      278795880                       # Total energy per rank (pJ) (Joule)
system.mem_ctrl.dram.rank0.averagePower    484.792421                       # Core power per rank (mW) (Watt)
system.mem_ctrl.dram.rank0.totalIdleTime            0                       # Total Idle time Per DRAM Rank (Tick)
system.mem_ctrl.dram.rank0.pwrStateTime::IDLE    490521500                       # Time in different power states (Tick)
system.mem_ctrl.dram.rank0.pwrStateTime::REF     19240000                       # Time in different power states (Tick)
system.mem_ctrl.dram.rank0.pwrStateTime::SREF            0                       # Time in different power states (Tick)
system.mem_ctrl.dram.rank0.pwrStateTime::PRE_PDN            0                       # Time in different power states (Tick)
system.mem_ctrl.dram.rank0.pwrStateTime::ACT     65321500                       # Time in different power states (Tick)
system.mem_ctrl.dram.rank0.pwrStateTime::ACT_PDN            0                       # Time in different power states (Tick)
system.mem_ctrl.dram.rank1.actEnergy           806820                       # Energy for activate commands per rank (pJ) (Joule)
system.mem_ctrl.dram.rank1.preEnergy           406065                       # Energy for precharge commands per rank (pJ) (Joule)
system.mem_ctrl.dram.rank1.readEnergy         2034900                       # Energy for read commands per rank (pJ) (Joule)
system.mem_ctrl.dram.rank1.writeEnergy        1216260                       # Energy for write commands per rank (pJ) (Joule)
system.mem_ctrl.dram.rank1.refreshEnergy 45483360.000000                       # Energy for refresh commands per rank (pJ) (Joule)
system.mem_ctrl.dram.rank1.actBackEnergy     38664810                       # Energy for active background per rank (pJ) (Joule)
system.mem_ctrl.dram.rank1.preBackEnergy    188272320                       # Energy for precharge background per rank (pJ) (Joule)
system.mem_ctrl.dram.rank1.actPowerDownEnergy            0                       # Energy for active power-down per rank (pJ) (Joule)
system.mem_ctrl.dram.rank1.prePowerDownEnergy            0                       # Energy for precharge power-down per rank (pJ) (Joule)
system.mem_ctrl.dram.rank1.selfRefreshEnergy            0                       # Energy for self refresh per rank (pJ) (Joule)
system.mem_ctrl.dram.rank1.totalEnergy      276884535                       # Total energy per rank (pJ) (Joule)
system.mem_ctrl.dram.rank1.averagePower    481.468823                       # Core power per rank (mW) (Watt)
system.mem_ctrl.dram.rank1.totalIdleTime            0                       # Total Idle time Per DRAM Rank (Tick)
system.mem_ctrl.dram.rank1.pwrStateTime::IDLE    489036750                       # Time in different power states (Tick)
system.mem_ctrl.dram.rank1.pwrStateTime::REF     19240000                       # Time in different power states (Tick)
system.mem_ctrl.dram.rank1.pwrStateTime::SREF            0                       # Time in different power states (Tick)
system.mem_ctrl.dram.rank1.pwrStateTime::PRE_PDN            0                       # Time in different power states (Tick)
system.mem_ctrl.dram.rank1.pwrStateTime::ACT     66806250                       # Time in different power states (Tick)
system.mem_ctrl.dram.rank1.pwrStateTime::ACT_PDN            0                       # Time in different power states (Tick)
system.mem_ctrl.power_state.pwrStateResidencyTicks::UNDEFINED    575083000                       # Cumulative time (in ticks) in various power states (Tick)
system.workload.inst.arm                            0                       # number of arm instructions executed (Count)
system.workload.inst.quiesce                        0                       # number of quiesce instructions executed (Count)

---------- End Simulation Statistics   ----------
