
---------- Begin Simulation Statistics ----------
simSeconds                                   0.003147                       # Number of seconds simulated (Second)
simTicks                                   3146826000                       # Number of ticks simulated (Tick)
finalTick                                 12519791000                       # Number of ticks from beginning of simulation (restored from checkpoints and never reset) (Tick)
simFreq                                  1000000000000                       # The number of ticks per simulated second ((Tick/Second))
hostSeconds                                      9.67                       # Real time elapsed on the host (Second)
hostTickRate                                325576836                       # The number of ticks simulated per host second (ticks/s) ((Tick/Second))
hostMemory                                    9646240                       # Number of bytes of host memory used (Byte)
simInsts                                      6451886                       # Number of instructions simulated (Count)
simOps                                       12338249                       # Number of ops (including micro ops) simulated (Count)
hostInstRate                                   667519                       # Simulator instruction rate (inst/s) ((Count/Second))
hostOpRate                                    1276527                       # Simulator op (including micro ops) rate (op/s) ((Count/Second))
system.caches.delayHistogram::bucket_size            8                       # delay histogram for all message (Unspecified)
system.caches.delayHistogram::max_bucket           79                       # delay histogram for all message (Unspecified)
system.caches.delayHistogram::samples          520674                       # delay histogram for all message (Unspecified)
system.caches.delayHistogram::mean           0.336207                       # delay histogram for all message (Unspecified)
system.caches.delayHistogram::stdev          1.639463                       # delay histogram for all message (Unspecified)
system.caches.delayHistogram             |      516090     99.12%     99.12% |        3387      0.65%     99.77% |         833      0.16%     99.93% |         275      0.05%     99.98% |          70      0.01%    100.00% |          13      0.00%    100.00% |           2      0.00%    100.00% |           2      0.00%    100.00% |           2      0.00%    100.00% |           0      0.00%    100.00% # delay histogram for all message (Unspecified)
system.caches.delayHistogram::total            520674                       # delay histogram for all message (Unspecified)
system.caches.m_outstandReqHistSeqr::bucket_size            1                       (Unspecified)
system.caches.m_outstandReqHistSeqr::max_bucket            9                       (Unspecified)
system.caches.m_outstandReqHistSeqr::samples      1048591                       (Unspecified)
system.caches.m_outstandReqHistSeqr::mean     1.000051                       (Unspecified)
system.caches.m_outstandReqHistSeqr::gmean     1.000029                       (Unspecified)
system.caches.m_outstandReqHistSeqr::stdev     0.009814                       (Unspecified)
system.caches.m_outstandReqHistSeqr      |           0      0.00%      0.00% |     1048561    100.00%    100.00% |           8      0.00%    100.00% |          21      0.00%    100.00% |           1      0.00%    100.00% |           0      0.00%    100.00% |           0      0.00%    100.00% |           0      0.00%    100.00% |           0      0.00%    100.00% |           0      0.00%    100.00% (Unspecified)
system.caches.m_outstandReqHistSeqr::total      1048591                       (Unspecified)
system.caches.m_latencyHistSeqr::bucket_size           32                       (Unspecified)
system.caches.m_latencyHistSeqr::max_bucket          319                       (Unspecified)
system.caches.m_latencyHistSeqr::samples      1048589                       (Unspecified)
system.caches.m_latencyHistSeqr::mean        1.001110                       (Unspecified)
system.caches.m_latencyHistSeqr::gmean       1.000068                       (Unspecified)
system.caches.m_latencyHistSeqr::stdev       0.304245                       (Unspecified)
system.caches.m_latencyHistSeqr          |     1048572    100.00%    100.00% |          13      0.00%    100.00% |           3      0.00%    100.00% |           0      0.00%    100.00% |           0      0.00%    100.00% |           1      0.00%    100.00% |           0      0.00%    100.00% |           0      0.00%    100.00% |           0      0.00%    100.00% |           0      0.00%    100.00% (Unspecified)
system.caches.m_latencyHistSeqr::total        1048589                       (Unspecified)
system.caches.m_hitLatencyHistSeqr::bucket_size            1                       (Unspecified)
system.caches.m_hitLatencyHistSeqr::max_bucket            9                       (Unspecified)
system.caches.m_hitLatencyHistSeqr::samples      1048572                       (Unspecified)
system.caches.m_hitLatencyHistSeqr::mean            1                       (Unspecified)
system.caches.m_hitLatencyHistSeqr::gmean            1                       (Unspecified)
system.caches.m_hitLatencyHistSeqr       |           0      0.00%      0.00% |     1048572    100.00%    100.00% |           0      0.00%    100.00% |           0      0.00%    100.00% |           0      0.00%    100.00% |           0      0.00%    100.00% |           0      0.00%    100.00% |           0      0.00%    100.00% |           0      0.00%    100.00% |           0      0.00%    100.00% (Unspecified)
system.caches.m_hitLatencyHistSeqr::total      1048572                       (Unspecified)
system.caches.m_missLatencyHistSeqr::bucket_size           32                       (Unspecified)
system.caches.m_missLatencyHistSeqr::max_bucket          319                       (Unspecified)
system.caches.m_missLatencyHistSeqr::samples           17                       (Unspecified)
system.caches.m_missLatencyHistSeqr::mean    69.470588                       (Unspecified)
system.caches.m_missLatencyHistSeqr::gmean    65.391583                       (Unspecified)
system.caches.m_missLatencyHistSeqr::stdev    32.943356                       (Unspecified)
system.caches.m_missLatencyHistSeqr      |           0      0.00%      0.00% |          13     76.47%     76.47% |           3     17.65%     94.12% |           0      0.00%     94.12% |           0      0.00%     94.12% |           1      5.88%    100.00% |           0      0.00%    100.00% |           0      0.00%    100.00% |           0      0.00%    100.00% |           0      0.00%    100.00% (Unspecified)
system.caches.m_missLatencyHistSeqr::total           17                       (Unspecified)
system.caches.delayVCHist.vnet_1::bucket_size            2                       # delay histogram for vnet_1 (Unspecified)
system.caches.delayVCHist.vnet_1::max_bucket           19                       # delay histogram for vnet_1 (Unspecified)
system.caches.delayVCHist.vnet_1::samples       260352                       # delay histogram for vnet_1 (Unspecified)
system.caches.delayVCHist.vnet_1::mean       0.071910                       # delay histogram for vnet_1 (Unspecified)
system.caches.delayVCHist.vnet_1::stdev      0.650246                       # delay histogram for vnet_1 (Unspecified)
system.caches.delayVCHist.vnet_1         |      256497     98.52%     98.52% |        1132      0.43%     98.95% |         814      0.31%     99.27% |        1085      0.42%     99.68% |         795      0.31%     99.99% |          18      0.01%    100.00% |           5      0.00%    100.00% |           2      0.00%    100.00% |           4      0.00%    100.00% |           0      0.00%    100.00% # delay histogram for vnet_1 (Unspecified)
system.caches.delayVCHist.vnet_1::total        260352                       # delay histogram for vnet_1 (Unspecified)
system.caches.delayVCHist.vnet_2::bucket_size            8                       # delay histogram for vnet_2 (Unspecified)
system.caches.delayVCHist.vnet_2::max_bucket           79                       # delay histogram for vnet_2 (Unspecified)
system.caches.delayVCHist.vnet_2::samples       260322                       # delay histogram for vnet_2 (Unspecified)
system.caches.delayVCHist.vnet_2::mean       0.600533                       # delay histogram for vnet_2 (Unspecified)
system.caches.delayVCHist.vnet_2::stdev      2.193947                       # delay histogram for vnet_2 (Unspecified)
system.caches.delayVCHist.vnet_2         |      256562     98.56%     98.56% |        2567      0.99%     99.54% |         829      0.32%     99.86% |         275      0.11%     99.97% |          70      0.03%     99.99% |          13      0.00%    100.00% |           2      0.00%    100.00% |           2      0.00%    100.00% |           2      0.00%    100.00% |           0      0.00%    100.00% # delay histogram for vnet_2 (Unspecified)
system.caches.delayVCHist.vnet_2::total        260322                       # delay histogram for vnet_2 (Unspecified)
system.caches.L1Cache_Controller.Load         1522311      0.00%      0.00% (Unspecified)
system.caches.L1Cache_Controller.Ifetch        265080      0.00%      0.00% (Unspecified)
system.caches.L1Cache_Controller.Store         208077      0.00%      0.00% (Unspecified)
system.caches.L1Cache_Controller.Data          260352      0.00%      0.00% (Unspecified)
system.caches.L1Cache_Controller.Replacement       260322      0.00%      0.00% (Unspecified)
system.caches.L1Cache_Controller.Writeback_Ack       260322      0.00%      0.00% (Unspecified)
system.caches.L1Cache_Controller.I.Load        121501      0.00%      0.00% (Unspecified)
system.caches.L1Cache_Controller.I.Ifetch       108292      0.00%      0.00% (Unspecified)
system.caches.L1Cache_Controller.I.Store        30561      0.00%      0.00% (Unspecified)
system.caches.L1Cache_Controller.M.Load       1400810      0.00%      0.00% (Unspecified)
system.caches.L1Cache_Controller.M.Ifetch       156788      0.00%      0.00% (Unspecified)
system.caches.L1Cache_Controller.M.Store       177516      0.00%      0.00% (Unspecified)
system.caches.L1Cache_Controller.M.Replacement       260322      0.00%      0.00% (Unspecified)
system.caches.L1Cache_Controller.MI.Writeback_Ack       260322      0.00%      0.00% (Unspecified)
system.caches.L1Cache_Controller.IS.Data       229791      0.00%      0.00% (Unspecified)
system.caches.L1Cache_Controller.IM.Data        30561      0.00%      0.00% (Unspecified)
system.caches.Directory_Controller.GETX        260354      0.00%      0.00% (Unspecified)
system.caches.Directory_Controller.PUTX        260322      0.00%      0.00% (Unspecified)
system.caches.Directory_Controller.Memory_Data       260352      0.00%      0.00% (Unspecified)
system.caches.Directory_Controller.Memory_Ack       260322      0.00%      0.00% (Unspecified)
system.caches.Directory_Controller.I.GETX       260354      0.00%      0.00% (Unspecified)
system.caches.Directory_Controller.M.PUTX       260322      0.00%      0.00% (Unspecified)
system.caches.Directory_Controller.IM.Memory_Data       260352      0.00%      0.00% (Unspecified)
system.caches.Directory_Controller.MI.Memory_Ack       260322      0.00%      0.00% (Unspecified)
system.caches.MachineType.Directory.miss_mach_latency_hist_seqr::bucket_size           32                       (Unspecified)
system.caches.MachineType.Directory.miss_mach_latency_hist_seqr::max_bucket          319                       (Unspecified)
system.caches.MachineType.Directory.miss_mach_latency_hist_seqr::samples           17                       (Unspecified)
system.caches.MachineType.Directory.miss_mach_latency_hist_seqr::mean    69.470588                       (Unspecified)
system.caches.MachineType.Directory.miss_mach_latency_hist_seqr::gmean    65.391583                       (Unspecified)
system.caches.MachineType.Directory.miss_mach_latency_hist_seqr::stdev    32.943356                       (Unspecified)
system.caches.MachineType.Directory.miss_mach_latency_hist_seqr |           0      0.00%      0.00% |          13     76.47%     76.47% |           3     17.65%     94.12% |           0      0.00%     94.12% |           0      0.00%     94.12% |           1      5.88%    100.00% |           0      0.00%    100.00% |           0      0.00%    100.00% |           0      0.00%    100.00% |           0      0.00%    100.00% (Unspecified)
system.caches.MachineType.Directory.miss_mach_latency_hist_seqr::total           17                       (Unspecified)
system.caches.MachineType.Directory.incomplete_times_seqr       260351                       (Unspecified)
system.caches.RequestType.LD.latency_hist_seqr::bucket_size           32                       (Unspecified)
system.caches.RequestType.LD.latency_hist_seqr::max_bucket          319                       (Unspecified)
system.caches.RequestType.LD.latency_hist_seqr::samples      1048576                       (Unspecified)
system.caches.RequestType.LD.latency_hist_seqr::mean     1.001036                       (Unspecified)
system.caches.RequestType.LD.latency_hist_seqr::gmean     1.000064                       (Unspecified)
system.caches.RequestType.LD.latency_hist_seqr::stdev     0.294558                       (Unspecified)
system.caches.RequestType.LD.latency_hist_seqr |     1048560    100.00%    100.00% |          13      0.00%    100.00% |           2      0.00%    100.00% |           0      0.00%    100.00% |           0      0.00%    100.00% |           1      0.00%    100.00% |           0      0.00%    100.00% |           0      0.00%    100.00% |           0      0.00%    100.00% |           0      0.00%    100.00% (Unspecified)
system.caches.RequestType.LD.latency_hist_seqr::total      1048576                       (Unspecified)
system.caches.RequestType.LD.hit_latency_hist_seqr::bucket_size            1                       (Unspecified)
system.caches.RequestType.LD.hit_latency_hist_seqr::max_bucket            9                       (Unspecified)
system.caches.RequestType.LD.hit_latency_hist_seqr::samples      1048560                       (Unspecified)
system.caches.RequestType.LD.hit_latency_hist_seqr::mean            1                       (Unspecified)
system.caches.RequestType.LD.hit_latency_hist_seqr::gmean            1                       (Unspecified)
system.caches.RequestType.LD.hit_latency_hist_seqr |           0      0.00%      0.00% |     1048560    100.00%    100.00% |           0      0.00%    100.00% |           0      0.00%    100.00% |           0      0.00%    100.00% |           0      0.00%    100.00% |           0      0.00%    100.00% |           0      0.00%    100.00% |           0      0.00%    100.00% |           0      0.00%    100.00% (Unspecified)
system.caches.RequestType.LD.hit_latency_hist_seqr::total      1048560                       (Unspecified)
system.caches.RequestType.LD.miss_latency_hist_seqr::bucket_size           32                       (Unspecified)
system.caches.RequestType.LD.miss_latency_hist_seqr::max_bucket          319                       (Unspecified)
system.caches.RequestType.LD.miss_latency_hist_seqr::samples           16                       (Unspecified)
system.caches.RequestType.LD.miss_latency_hist_seqr::mean    68.875000                       (Unspecified)
system.caches.RequestType.LD.miss_latency_hist_seqr::gmean    64.623470                       (Unspecified)
system.caches.RequestType.LD.miss_latency_hist_seqr::stdev    33.929093                       (Unspecified)
system.caches.RequestType.LD.miss_latency_hist_seqr |           0      0.00%      0.00% |          13     81.25%     81.25% |           2     12.50%     93.75% |           0      0.00%     93.75% |           0      0.00%     93.75% |           1      6.25%    100.00% |           0      0.00%    100.00% |           0      0.00%    100.00% |           0      0.00%    100.00% |           0      0.00%    100.00% (Unspecified)
system.caches.RequestType.LD.miss_latency_hist_seqr::total           16                       (Unspecified)
system.caches.RequestType.ST.latency_hist_seqr::bucket_size            1                       (Unspecified)
system.caches.RequestType.ST.latency_hist_seqr::max_bucket            9                       (Unspecified)
system.caches.RequestType.ST.latency_hist_seqr::samples            1                       (Unspecified)
system.caches.RequestType.ST.latency_hist_seqr::mean            1                       (Unspecified)
system.caches.RequestType.ST.latency_hist_seqr::gmean            1                       (Unspecified)
system.caches.RequestType.ST.latency_hist_seqr::stdev          nan                       (Unspecified)
system.caches.RequestType.ST.latency_hist_seqr |           0      0.00%      0.00% |           1    100.00%    100.00% |           0      0.00%    100.00% |           0      0.00%    100.00% |           0      0.00%    100.00% |           0      0.00%    100.00% |           0      0.00%    100.00% |           0      0.00%    100.00% |           0      0.00%    100.00% |           0      0.00%    100.00% (Unspecified)
system.caches.RequestType.ST.latency_hist_seqr::total            1                       (Unspecified)
system.caches.RequestType.ST.hit_latency_hist_seqr::bucket_size            1                       (Unspecified)
system.caches.RequestType.ST.hit_latency_hist_seqr::max_bucket            9                       (Unspecified)
system.caches.RequestType.ST.hit_latency_hist_seqr::samples            1                       (Unspecified)
system.caches.RequestType.ST.hit_latency_hist_seqr::mean            1                       (Unspecified)
system.caches.RequestType.ST.hit_latency_hist_seqr::gmean            1                       (Unspecified)
system.caches.RequestType.ST.hit_latency_hist_seqr::stdev          nan                       (Unspecified)
system.caches.RequestType.ST.hit_latency_hist_seqr |           0      0.00%      0.00% |           1    100.00%    100.00% |           0      0.00%    100.00% |           0      0.00%    100.00% |           0      0.00%    100.00% |           0      0.00%    100.00% |           0      0.00%    100.00% |           0      0.00%    100.00% |           0      0.00%    100.00% |           0      0.00%    100.00% (Unspecified)
system.caches.RequestType.ST.hit_latency_hist_seqr::total            1                       (Unspecified)
system.caches.RequestType.IFETCH.latency_hist_seqr::bucket_size            8                       (Unspecified)
system.caches.RequestType.IFETCH.latency_hist_seqr::max_bucket           79                       (Unspecified)
system.caches.RequestType.IFETCH.latency_hist_seqr::samples           12                       (Unspecified)
system.caches.RequestType.IFETCH.latency_hist_seqr::mean     7.500000                       (Unspecified)
system.caches.RequestType.IFETCH.latency_hist_seqr::gmean     1.439248                       (Unspecified)
system.caches.RequestType.IFETCH.latency_hist_seqr::stdev    22.516660                       (Unspecified)
system.caches.RequestType.IFETCH.latency_hist_seqr |          11     91.67%     91.67% |           0      0.00%     91.67% |           0      0.00%     91.67% |           0      0.00%     91.67% |           0      0.00%     91.67% |           0      0.00%     91.67% |           0      0.00%     91.67% |           0      0.00%     91.67% |           0      0.00%     91.67% |           1      8.33%    100.00% (Unspecified)
system.caches.RequestType.IFETCH.latency_hist_seqr::total           12                       (Unspecified)
system.caches.RequestType.IFETCH.hit_latency_hist_seqr::bucket_size            1                       (Unspecified)
system.caches.RequestType.IFETCH.hit_latency_hist_seqr::max_bucket            9                       (Unspecified)
system.caches.RequestType.IFETCH.hit_latency_hist_seqr::samples           11                       (Unspecified)
system.caches.RequestType.IFETCH.hit_latency_hist_seqr::mean            1                       (Unspecified)
system.caches.RequestType.IFETCH.hit_latency_hist_seqr::gmean            1                       (Unspecified)
system.caches.RequestType.IFETCH.hit_latency_hist_seqr |           0      0.00%      0.00% |          11    100.00%    100.00% |           0      0.00%    100.00% |           0      0.00%    100.00% |           0      0.00%    100.00% |           0      0.00%    100.00% |           0      0.00%    100.00% |           0      0.00%    100.00% |           0      0.00%    100.00% |           0      0.00%    100.00% (Unspecified)
system.caches.RequestType.IFETCH.hit_latency_hist_seqr::total           11                       (Unspecified)
system.caches.RequestType.IFETCH.miss_latency_hist_seqr::bucket_size            8                       (Unspecified)
system.caches.RequestType.IFETCH.miss_latency_hist_seqr::max_bucket           79                       (Unspecified)
system.caches.RequestType.IFETCH.miss_latency_hist_seqr::samples            1                       (Unspecified)
system.caches.RequestType.IFETCH.miss_latency_hist_seqr::mean           79                       (Unspecified)
system.caches.RequestType.IFETCH.miss_latency_hist_seqr::gmean           79                       (Unspecified)
system.caches.RequestType.IFETCH.miss_latency_hist_seqr::stdev          nan                       (Unspecified)
system.caches.RequestType.IFETCH.miss_latency_hist_seqr |           0      0.00%      0.00% |           0      0.00%      0.00% |           0      0.00%      0.00% |           0      0.00%      0.00% |           0      0.00%      0.00% |           0      0.00%      0.00% |           0      0.00%      0.00% |           0      0.00%      0.00% |           0      0.00%      0.00% |           1    100.00%    100.00% (Unspecified)
system.caches.RequestType.IFETCH.miss_latency_hist_seqr::total            1                       (Unspecified)
system.caches.RequestTypeMachineType.LD.Directory.miss_type_mach_latency_hist_seqr::bucket_size           32                       (Unspecified)
system.caches.RequestTypeMachineType.LD.Directory.miss_type_mach_latency_hist_seqr::max_bucket          319                       (Unspecified)
system.caches.RequestTypeMachineType.LD.Directory.miss_type_mach_latency_hist_seqr::samples           16                       (Unspecified)
system.caches.RequestTypeMachineType.LD.Directory.miss_type_mach_latency_hist_seqr::mean    68.875000                       (Unspecified)
system.caches.RequestTypeMachineType.LD.Directory.miss_type_mach_latency_hist_seqr::gmean    64.623470                       (Unspecified)
system.caches.RequestTypeMachineType.LD.Directory.miss_type_mach_latency_hist_seqr::stdev    33.929093                       (Unspecified)
system.caches.RequestTypeMachineType.LD.Directory.miss_type_mach_latency_hist_seqr |           0      0.00%      0.00% |          13     81.25%     81.25% |           2     12.50%     93.75% |           0      0.00%     93.75% |           0      0.00%     93.75% |           1      6.25%    100.00% |           0      0.00%    100.00% |           0      0.00%    100.00% |           0      0.00%    100.00% |           0      0.00%    100.00% (Unspecified)
system.caches.RequestTypeMachineType.LD.Directory.miss_type_mach_latency_hist_seqr::total           16                       (Unspecified)
system.caches.RequestTypeMachineType.IFETCH.Directory.miss_type_mach_latency_hist_seqr::bucket_size            8                       (Unspecified)
system.caches.RequestTypeMachineType.IFETCH.Directory.miss_type_mach_latency_hist_seqr::max_bucket           79                       (Unspecified)
system.caches.RequestTypeMachineType.IFETCH.Directory.miss_type_mach_latency_hist_seqr::samples            1                       (Unspecified)
system.caches.RequestTypeMachineType.IFETCH.Directory.miss_type_mach_latency_hist_seqr::mean           79                       (Unspecified)
system.caches.RequestTypeMachineType.IFETCH.Directory.miss_type_mach_latency_hist_seqr::gmean           79                       (Unspecified)
system.caches.RequestTypeMachineType.IFETCH.Directory.miss_type_mach_latency_hist_seqr::stdev          nan                       (Unspecified)
system.caches.RequestTypeMachineType.IFETCH.Directory.miss_type_mach_latency_hist_seqr |           0      0.00%      0.00% |           0      0.00%      0.00% |           0      0.00%      0.00% |           0      0.00%      0.00% |           0      0.00%      0.00% |           0      0.00%      0.00% |           0      0.00%      0.00% |           0      0.00%      0.00% |           0      0.00%      0.00% |           1    100.00%    100.00% (Unspecified)
system.caches.RequestTypeMachineType.IFETCH.Directory.miss_type_mach_latency_hist_seqr::total            1                       (Unspecified)
system.caches.controllers0.delayHistogram::samples       520674                       # delay_histogram (Unspecified)
system.caches.controllers0.delayHistogram::mean     0.336207                       # delay_histogram (Unspecified)
system.caches.controllers0.delayHistogram::stdev     1.639463                       # delay_histogram (Unspecified)
system.caches.controllers0.delayHistogram::0-7       516090     99.12%     99.12% # delay_histogram (Unspecified)
system.caches.controllers0.delayHistogram::8-15         3387      0.65%     99.77% # delay_histogram (Unspecified)
system.caches.controllers0.delayHistogram::16-23          833      0.16%     99.93% # delay_histogram (Unspecified)
system.caches.controllers0.delayHistogram::24-31          275      0.05%     99.98% # delay_histogram (Unspecified)
system.caches.controllers0.delayHistogram::32-39           70      0.01%    100.00% # delay_histogram (Unspecified)
system.caches.controllers0.delayHistogram::40-47           13      0.00%    100.00% # delay_histogram (Unspecified)
system.caches.controllers0.delayHistogram::48-55            2      0.00%    100.00% # delay_histogram (Unspecified)
system.caches.controllers0.delayHistogram::56-63            2      0.00%    100.00% # delay_histogram (Unspecified)
system.caches.controllers0.delayHistogram::64-71            2      0.00%    100.00% # delay_histogram (Unspecified)
system.caches.controllers0.delayHistogram::total       520674                       # delay_histogram (Unspecified)
system.caches.controllers0.cacheMemory.m_demand_hits      1735114                       # Number of cache demand hits (Unspecified)
system.caches.controllers0.cacheMemory.m_demand_misses       260354                       # Number of cache demand misses (Unspecified)
system.caches.controllers0.cacheMemory.m_demand_accesses      1995468                       # Number of cache demand accesses (Unspecified)
system.caches.controllers0.forwardToCache.m_buf_msgs     0.020793                       # Average number of messages in buffer (Unspecified)
system.caches.controllers0.forwardToCache.m_stall_time  5161.345185                       # Average number of cycles messages are stalled in this MB (Unspecified)
system.caches.controllers0.mandatoryQueue.m_buf_msgs     0.252959                       # Average number of messages in buffer (Unspecified)
system.caches.controllers0.mandatoryQueue.m_stall_time  1326.749384                       # Average number of cycles messages are stalled in this MB (Unspecified)
system.caches.controllers0.power_state.pwrStateResidencyTicks::UNDEFINED  12519791000                       # Cumulative time (in ticks) in various power states (Tick)
system.caches.controllers0.requestFromCache.m_buf_msgs     0.083176                       # Average number of messages in buffer (Unspecified)
system.caches.controllers0.requestFromCache.m_stall_time  1999.999521                       # Average number of cycles messages are stalled in this MB (Unspecified)
system.caches.controllers0.responseToCache.m_buf_msgs     0.020795                       # Average number of messages in buffer (Unspecified)
system.caches.controllers0.responseToCache.m_stall_time  5024.346013                       # Average number of cycles messages are stalled in this MB (Unspecified)
system.caches.controllers1.forwardFromDir.m_buf_msgs     0.020793                       # Average number of messages in buffer (Unspecified)
system.caches.controllers1.forwardFromDir.m_stall_time   999.929711                       # Average number of cycles messages are stalled in this MB (Unspecified)
system.caches.controllers1.power_state.pwrStateResidencyTicks::UNDEFINED  12519791000                       # Cumulative time (in ticks) in various power states (Tick)
system.caches.controllers1.requestToDir.m_buf_msgs     0.041588                       # Average number of messages in buffer (Unspecified)
system.caches.controllers1.requestToDir.m_stall_time 10733.494752                       # Average number of cycles messages are stalled in this MB (Unspecified)
system.caches.controllers1.requestToMemory.m_buf_msgs     0.041660                       # Average number of messages in buffer (Unspecified)
system.caches.controllers1.requestToMemory.m_stall_time  1000.314143                       # Average number of cycles messages are stalled in this MB (Unspecified)
system.caches.controllers1.responseFromDir.m_buf_msgs     0.020795                       # Average number of messages in buffer (Unspecified)
system.caches.controllers1.responseFromDir.m_stall_time   999.994489                       # Average number of cycles messages are stalled in this MB (Unspecified)
system.caches.controllers1.responseFromMemory.m_buf_msgs     0.048123                       # Average number of messages in buffer (Unspecified)
system.caches.controllers1.responseFromMemory.m_stall_time   999.994569                       # Average number of cycles messages are stalled in this MB (Unspecified)
system.caches.network.msg_count.Control        520708                       (Unspecified)
system.caches.network.msg_byte.Control        4165664                       (Unspecified)
system.caches.network.msg_count.Data           520644                       (Unspecified)
system.caches.network.msg_byte.Data          37486368                       (Unspecified)
system.caches.network.msg_count.Response_Data       520704                       (Unspecified)
system.caches.network.msg_byte.Response_Data     37490688                       (Unspecified)
system.caches.network.msg_count.Writeback_Control       520644                       (Unspecified)
system.caches.network.msg_byte.Writeback_Control      4165152                       (Unspecified)
system.caches.network.int_link_buffers2.m_buf_msgs     0.000012                       # Average number of messages in buffer (Unspecified)
system.caches.network.int_link_buffers2.m_stall_time  7999.911021                       # Average number of cycles messages are stalled in this MB (Unspecified)
system.caches.network.int_link_buffers8.m_buf_msgs     0.000006                       # Average number of messages in buffer (Unspecified)
system.caches.network.int_link_buffers8.m_stall_time         3000                       # Average number of cycles messages are stalled in this MB (Unspecified)
system.caches.network.int_link_buffers9.m_buf_msgs     0.000005                       # Average number of messages in buffer (Unspecified)
system.caches.network.int_link_buffers9.m_stall_time         3000                       # Average number of cycles messages are stalled in this MB (Unspecified)
system.caches.network.power_state.pwrStateResidencyTicks::UNDEFINED  12519791000                       # Cumulative time (in ticks) in various power states (Tick)
system.caches.network.routers0.percent_links_utilized     0.002876                       (Unspecified)
system.caches.network.routers0.msg_count.Control::2       260354                       (Unspecified)
system.caches.network.routers0.msg_bytes.Control::2      2082832                       (Unspecified)
system.caches.network.routers0.msg_count.Data::2       260322                       (Unspecified)
system.caches.network.routers0.msg_bytes.Data::2     18743184                       (Unspecified)
system.caches.network.routers0.msg_count.Response_Data::4       260352                       (Unspecified)
system.caches.network.routers0.msg_bytes.Response_Data::4     18745344                       (Unspecified)
system.caches.network.routers0.msg_count.Writeback_Control::3       260322                       (Unspecified)
system.caches.network.routers0.msg_bytes.Writeback_Control::3      2082576                       (Unspecified)
system.caches.network.routers0.port_buffers3.m_buf_msgs     0.020793                       # Average number of messages in buffer (Unspecified)
system.caches.network.routers0.port_buffers3.m_stall_time  4161.416113                       # Average number of cycles messages are stalled in this MB (Unspecified)
system.caches.network.routers0.port_buffers4.m_buf_msgs     0.020795                       # Average number of messages in buffer (Unspecified)
system.caches.network.routers0.port_buffers4.m_stall_time  4024.352164                       # Average number of cycles messages are stalled in this MB (Unspecified)
system.caches.network.routers0.port_buffers7.m_buf_msgs     0.189163                       # Average number of messages in buffer (Unspecified)
system.caches.network.routers0.port_buffers7.m_stall_time  7733.498107                       # Average number of cycles messages are stalled in this MB (Unspecified)
system.caches.network.routers0.power_state.pwrStateResidencyTicks::UNDEFINED  12519791000                       # Cumulative time (in ticks) in various power states (Tick)
system.caches.network.routers0.throttle00.link_utilization     0.002733                       (Unspecified)
system.caches.network.routers0.throttle00.msg_count.Response_Data::4       260352                       (Unspecified)
system.caches.network.routers0.throttle00.msg_bytes.Response_Data::4     18745344                       (Unspecified)
system.caches.network.routers0.throttle00.msg_count.Writeback_Control::3       260322                       (Unspecified)
system.caches.network.routers0.throttle00.msg_bytes.Writeback_Control::3      2082576                       (Unspecified)
system.caches.network.routers0.throttle01.link_utilization     0.003019                       (Unspecified)
system.caches.network.routers0.throttle01.msg_count.Control::2       260354                       (Unspecified)
system.caches.network.routers0.throttle01.msg_bytes.Control::2      2082832                       (Unspecified)
system.caches.network.routers0.throttle01.msg_count.Data::2       260322                       (Unspecified)
system.caches.network.routers0.throttle01.msg_bytes.Data::2     18743184                       (Unspecified)
system.caches.network.routers1.percent_links_utilized     0.002876                       (Unspecified)
system.caches.network.routers1.msg_count.Control::2       260354                       (Unspecified)
system.caches.network.routers1.msg_bytes.Control::2      2082832                       (Unspecified)
system.caches.network.routers1.msg_count.Data::2       260322                       (Unspecified)
system.caches.network.routers1.msg_bytes.Data::2     18743184                       (Unspecified)
system.caches.network.routers1.msg_count.Response_Data::4       260352                       (Unspecified)
system.caches.network.routers1.msg_bytes.Response_Data::4     18745344                       (Unspecified)
system.caches.network.routers1.msg_count.Writeback_Control::3       260322                       (Unspecified)
system.caches.network.routers1.msg_bytes.Writeback_Control::3      2082576                       (Unspecified)
system.caches.network.routers1.port_buffers2.m_buf_msgs     0.041588                       # Average number of messages in buffer (Unspecified)
system.caches.network.routers1.port_buffers2.m_stall_time  9733.496030                       # Average number of cycles messages are stalled in this MB (Unspecified)
system.caches.network.routers1.port_buffers6.m_buf_msgs     0.027036                       # Average number of messages in buffer (Unspecified)
system.caches.network.routers1.port_buffers6.m_stall_time  2161.557489                       # Average number of cycles messages are stalled in this MB (Unspecified)
system.caches.network.routers1.port_buffers7.m_buf_msgs     0.021543                       # Average number of messages in buffer (Unspecified)
system.caches.network.routers1.port_buffers7.m_stall_time  2024.363985                       # Average number of cycles messages are stalled in this MB (Unspecified)
system.caches.network.routers1.power_state.pwrStateResidencyTicks::UNDEFINED  12519791000                       # Cumulative time (in ticks) in various power states (Tick)
system.caches.network.routers1.throttle00.link_utilization     0.003019                       (Unspecified)
system.caches.network.routers1.throttle00.msg_count.Control::2       260354                       (Unspecified)
system.caches.network.routers1.throttle00.msg_bytes.Control::2      2082832                       (Unspecified)
system.caches.network.routers1.throttle00.msg_count.Data::2       260322                       (Unspecified)
system.caches.network.routers1.throttle00.msg_bytes.Data::2     18743184                       (Unspecified)
system.caches.network.routers1.throttle01.link_utilization     0.002733                       (Unspecified)
system.caches.network.routers1.throttle01.msg_count.Response_Data::4       260352                       (Unspecified)
system.caches.network.routers1.throttle01.msg_bytes.Response_Data::4     18745344                       (Unspecified)
system.caches.network.routers1.throttle01.msg_count.Writeback_Control::3       260322                       (Unspecified)
system.caches.network.routers1.throttle01.msg_bytes.Writeback_Control::3      2082576                       (Unspecified)
system.caches.power_state.pwrStateResidencyTicks::UNDEFINED  12519791000                       # Cumulative time (in ticks) in various power states (Tick)
system.caches.sequencers.power_state.pwrStateResidencyTicks::UNDEFINED  12519791000                       # Cumulative time (in ticks) in various power states (Tick)
system.caches.sys_port_proxy.power_state.pwrStateResidencyTicks::UNDEFINED  12519791000                       # Cumulative time (in ticks) in various power states (Tick)
system.clk_domain.clock                          1000                       # Clock period in ticks (Tick)
system.clk_domain.voltage_domain.voltage            1                       # Voltage in Volts (Volt)
system.cpu.numCycles                          3146826                       # Number of cpu cycles simulated (Cycle)
system.cpu.numWorkItemsStarted                      0                       # Number of work items this cpu started (Count)
system.cpu.numWorkItemsCompleted                    0                       # Number of work items this cpu completed (Count)
system.cpu.instsAdded                         8388685                       # Number of instructions added to the IQ (excludes non-spec) (Count)
system.cpu.nonSpecInstsAdded                        3                       # Number of non-speculative instructions added to the IQ (Count)
system.cpu.instsIssued                        8388681                       # Number of instructions issued (Count)
system.cpu.squashedInstsExamined                   49                       # Number of squashed instructions iterated over during squash; mainly for profiling (Count)
system.cpu.squashedOperandsExamined                22                       # Number of squashed operands that are examined and possibly removed from graph (Count)
system.cpu.squashedNonSpecRemoved                   2                       # Number of squashed non-spec instructions that were removed (Count)
system.cpu.numIssuedDist::samples             3146826                       # Number of insts issued each cycle (Count)
system.cpu.numIssuedDist::mean               2.665759                       # Number of insts issued each cycle (Count)
system.cpu.numIssuedDist::stdev              1.334022                       # Number of insts issued each cycle (Count)
system.cpu.numIssuedDist::underflows                0      0.00%      0.00% # Number of insts issued each cycle (Count)
system.cpu.numIssuedDist::0                      1037      0.03%      0.03% # Number of insts issued each cycle (Count)
system.cpu.numIssuedDist::1                    699133     22.22%     22.25% # Number of insts issued each cycle (Count)
system.cpu.numIssuedDist::2                   1048549     33.32%     55.57% # Number of insts issued each cycle (Count)
system.cpu.numIssuedDist::3                    349533     11.11%     66.68% # Number of insts issued each cycle (Count)
system.cpu.numIssuedDist::4                    699038     22.21%     88.89% # Number of insts issued each cycle (Count)
system.cpu.numIssuedDist::5                    349517     11.11%    100.00% # Number of insts issued each cycle (Count)
system.cpu.numIssuedDist::6                        19      0.00%    100.00% # Number of insts issued each cycle (Count)
system.cpu.numIssuedDist::7                         0      0.00%    100.00% # Number of insts issued each cycle (Count)
system.cpu.numIssuedDist::8                         0      0.00%    100.00% # Number of insts issued each cycle (Count)
system.cpu.numIssuedDist::overflows                 0      0.00%    100.00% # Number of insts issued each cycle (Count)
system.cpu.numIssuedDist::min_value                 0                       # Number of insts issued each cycle (Count)
system.cpu.numIssuedDist::max_value                 6                       # Number of insts issued each cycle (Count)
system.cpu.numIssuedDist::total               3146826                       # Number of insts issued each cycle (Count)
system.cpu.statFuBusy::No_OpClass                   0      0.00%      0.00% # attempts to use FU when none available (Count)
system.cpu.statFuBusy::IntAlu                       9    100.00%    100.00% # attempts to use FU when none available (Count)
system.cpu.statFuBusy::IntMult                      0      0.00%    100.00% # attempts to use FU when none available (Count)
system.cpu.statFuBusy::IntDiv                       0      0.00%    100.00% # attempts to use FU when none available (Count)
system.cpu.statFuBusy::FloatAdd                     0      0.00%    100.00% # attempts to use FU when none available (Count)
system.cpu.statFuBusy::FloatCmp                     0      0.00%    100.00% # attempts to use FU when none available (Count)
system.cpu.statFuBusy::FloatCvt                     0      0.00%    100.00% # attempts to use FU when none available (Count)
system.cpu.statFuBusy::FloatMult                    0      0.00%    100.00% # attempts to use FU when none available (Count)
system.cpu.statFuBusy::FloatMultAcc                 0      0.00%    100.00% # attempts to use FU when none available (Count)
system.cpu.statFuBusy::FloatDiv                     0      0.00%    100.00% # attempts to use FU when none available (Count)
system.cpu.statFuBusy::FloatMisc                    0      0.00%    100.00% # attempts to use FU when none available (Count)
system.cpu.statFuBusy::FloatSqrt                    0      0.00%    100.00% # attempts to use FU when none available (Count)
system.cpu.statFuBusy::SimdAdd                      0      0.00%    100.00% # attempts to use FU when none available (Count)
system.cpu.statFuBusy::SimdAddAcc                   0      0.00%    100.00% # attempts to use FU when none available (Count)
system.cpu.statFuBusy::SimdAlu                      0      0.00%    100.00% # attempts to use FU when none available (Count)
system.cpu.statFuBusy::SimdCmp                      0      0.00%    100.00% # attempts to use FU when none available (Count)
system.cpu.statFuBusy::SimdCvt                      0      0.00%    100.00% # attempts to use FU when none available (Count)
system.cpu.statFuBusy::SimdMisc                     0      0.00%    100.00% # attempts to use FU when none available (Count)
system.cpu.statFuBusy::SimdMult                     0      0.00%    100.00% # attempts to use FU when none available (Count)
system.cpu.statFuBusy::SimdMultAcc                  0      0.00%    100.00% # attempts to use FU when none available (Count)
system.cpu.statFuBusy::SimdShift                    0      0.00%    100.00% # attempts to use FU when none available (Count)
system.cpu.statFuBusy::SimdShiftAcc                 0      0.00%    100.00% # attempts to use FU when none available (Count)
system.cpu.statFuBusy::SimdDiv                      0      0.00%    100.00% # attempts to use FU when none available (Count)
system.cpu.statFuBusy::SimdSqrt                     0      0.00%    100.00% # attempts to use FU when none available (Count)
system.cpu.statFuBusy::SimdFloatAdd                 0      0.00%    100.00% # attempts to use FU when none available (Count)
system.cpu.statFuBusy::SimdFloatAlu                 0      0.00%    100.00% # attempts to use FU when none available (Count)
system.cpu.statFuBusy::SimdFloatCmp                 0      0.00%    100.00% # attempts to use FU when none available (Count)
system.cpu.statFuBusy::SimdFloatCvt                 0      0.00%    100.00% # attempts to use FU when none available (Count)
system.cpu.statFuBusy::SimdFloatDiv                 0      0.00%    100.00% # attempts to use FU when none available (Count)
system.cpu.statFuBusy::SimdFloatMisc                0      0.00%    100.00% # attempts to use FU when none available (Count)
system.cpu.statFuBusy::SimdFloatMult                0      0.00%    100.00% # attempts to use FU when none available (Count)
system.cpu.statFuBusy::SimdFloatMultAcc             0      0.00%    100.00% # attempts to use FU when none available (Count)
system.cpu.statFuBusy::SimdFloatSqrt                0      0.00%    100.00% # attempts to use FU when none available (Count)
system.cpu.statFuBusy::SimdReduceAdd                0      0.00%    100.00% # attempts to use FU when none available (Count)
system.cpu.statFuBusy::SimdReduceAlu                0      0.00%    100.00% # attempts to use FU when none available (Count)
system.cpu.statFuBusy::SimdReduceCmp                0      0.00%    100.00% # attempts to use FU when none available (Count)
system.cpu.statFuBusy::SimdFloatReduceAdd            0      0.00%    100.00% # attempts to use FU when none available (Count)
system.cpu.statFuBusy::SimdFloatReduceCmp            0      0.00%    100.00% # attempts to use FU when none available (Count)
system.cpu.statFuBusy::SimdAes                      0      0.00%    100.00% # attempts to use FU when none available (Count)
system.cpu.statFuBusy::SimdAesMix                   0      0.00%    100.00% # attempts to use FU when none available (Count)
system.cpu.statFuBusy::SimdSha1Hash                 0      0.00%    100.00% # attempts to use FU when none available (Count)
system.cpu.statFuBusy::SimdSha1Hash2                0      0.00%    100.00% # attempts to use FU when none available (Count)
system.cpu.statFuBusy::SimdSha256Hash               0      0.00%    100.00% # attempts to use FU when none available (Count)
system.cpu.statFuBusy::SimdSha256Hash2              0      0.00%    100.00% # attempts to use FU when none available (Count)
system.cpu.statFuBusy::SimdShaSigma2                0      0.00%    100.00% # attempts to use FU when none available (Count)
system.cpu.statFuBusy::SimdShaSigma3                0      0.00%    100.00% # attempts to use FU when none available (Count)
system.cpu.statFuBusy::SimdPredAlu                  0      0.00%    100.00% # attempts to use FU when none available (Count)
system.cpu.statFuBusy::MemRead                      0      0.00%    100.00% # attempts to use FU when none available (Count)
system.cpu.statFuBusy::MemWrite                     0      0.00%    100.00% # attempts to use FU when none available (Count)
system.cpu.statFuBusy::FloatMemRead                 0      0.00%    100.00% # attempts to use FU when none available (Count)
system.cpu.statFuBusy::FloatMemWrite                0      0.00%    100.00% # attempts to use FU when none available (Count)
system.cpu.statFuBusy::IprAccess                    0      0.00%    100.00% # attempts to use FU when none available (Count)
system.cpu.statFuBusy::InstPrefetch                 0      0.00%    100.00% # attempts to use FU when none available (Count)
system.cpu.statIssuedInstType_0::No_OpClass            1      0.00%      0.00% # Number of instructions issued per FU type, per thread (Count)
system.cpu.statIssuedInstType_0::IntAlu       7340093     87.50%     87.50% # Number of instructions issued per FU type, per thread (Count)
system.cpu.statIssuedInstType_0::IntMult            0      0.00%     87.50% # Number of instructions issued per FU type, per thread (Count)
system.cpu.statIssuedInstType_0::IntDiv             0      0.00%     87.50% # Number of instructions issued per FU type, per thread (Count)
system.cpu.statIssuedInstType_0::FloatAdd            0      0.00%     87.50% # Number of instructions issued per FU type, per thread (Count)
system.cpu.statIssuedInstType_0::FloatCmp            0      0.00%     87.50% # Number of instructions issued per FU type, per thread (Count)
system.cpu.statIssuedInstType_0::FloatCvt            0      0.00%     87.50% # Number of instructions issued per FU type, per thread (Count)
system.cpu.statIssuedInstType_0::FloatMult            0      0.00%     87.50% # Number of instructions issued per FU type, per thread (Count)
system.cpu.statIssuedInstType_0::FloatMultAcc            0      0.00%     87.50% # Number of instructions issued per FU type, per thread (Count)
system.cpu.statIssuedInstType_0::FloatDiv            0      0.00%     87.50% # Number of instructions issued per FU type, per thread (Count)
system.cpu.statIssuedInstType_0::FloatMisc            0      0.00%     87.50% # Number of instructions issued per FU type, per thread (Count)
system.cpu.statIssuedInstType_0::FloatSqrt            0      0.00%     87.50% # Number of instructions issued per FU type, per thread (Count)
system.cpu.statIssuedInstType_0::SimdAdd            0      0.00%     87.50% # Number of instructions issued per FU type, per thread (Count)
system.cpu.statIssuedInstType_0::SimdAddAcc            0      0.00%     87.50% # Number of instructions issued per FU type, per thread (Count)
system.cpu.statIssuedInstType_0::SimdAlu            0      0.00%     87.50% # Number of instructions issued per FU type, per thread (Count)
system.cpu.statIssuedInstType_0::SimdCmp            0      0.00%     87.50% # Number of instructions issued per FU type, per thread (Count)
system.cpu.statIssuedInstType_0::SimdCvt            0      0.00%     87.50% # Number of instructions issued per FU type, per thread (Count)
system.cpu.statIssuedInstType_0::SimdMisc            0      0.00%     87.50% # Number of instructions issued per FU type, per thread (Count)
system.cpu.statIssuedInstType_0::SimdMult            0      0.00%     87.50% # Number of instructions issued per FU type, per thread (Count)
system.cpu.statIssuedInstType_0::SimdMultAcc            0      0.00%     87.50% # Number of instructions issued per FU type, per thread (Count)
system.cpu.statIssuedInstType_0::SimdShift            0      0.00%     87.50% # Number of instructions issued per FU type, per thread (Count)
system.cpu.statIssuedInstType_0::SimdShiftAcc            0      0.00%     87.50% # Number of instructions issued per FU type, per thread (Count)
system.cpu.statIssuedInstType_0::SimdDiv            0      0.00%     87.50% # Number of instructions issued per FU type, per thread (Count)
system.cpu.statIssuedInstType_0::SimdSqrt            0      0.00%     87.50% # Number of instructions issued per FU type, per thread (Count)
system.cpu.statIssuedInstType_0::SimdFloatAdd            0      0.00%     87.50% # Number of instructions issued per FU type, per thread (Count)
system.cpu.statIssuedInstType_0::SimdFloatAlu            0      0.00%     87.50% # Number of instructions issued per FU type, per thread (Count)
system.cpu.statIssuedInstType_0::SimdFloatCmp            0      0.00%     87.50% # Number of instructions issued per FU type, per thread (Count)
system.cpu.statIssuedInstType_0::SimdFloatCvt            0      0.00%     87.50% # Number of instructions issued per FU type, per thread (Count)
system.cpu.statIssuedInstType_0::SimdFloatDiv            0      0.00%     87.50% # Number of instructions issued per FU type, per thread (Count)
system.cpu.statIssuedInstType_0::SimdFloatMisc            0      0.00%     87.50% # Number of instructions issued per FU type, per thread (Count)
system.cpu.statIssuedInstType_0::SimdFloatMult            0      0.00%     87.50% # Number of instructions issued per FU type, per thread (Count)
system.cpu.statIssuedInstType_0::SimdFloatMultAcc            0      0.00%     87.50% # Number of instructions issued per FU type, per thread (Count)
system.cpu.statIssuedInstType_0::SimdFloatSqrt            0      0.00%     87.50% # Number of instructions issued per FU type, per thread (Count)
system.cpu.statIssuedInstType_0::SimdReduceAdd            0      0.00%     87.50% # Number of instructions issued per FU type, per thread (Count)
system.cpu.statIssuedInstType_0::SimdReduceAlu            0      0.00%     87.50% # Number of instructions issued per FU type, per thread (Count)
system.cpu.statIssuedInstType_0::SimdReduceCmp            0      0.00%     87.50% # Number of instructions issued per FU type, per thread (Count)
system.cpu.statIssuedInstType_0::SimdFloatReduceAdd            0      0.00%     87.50% # Number of instructions issued per FU type, per thread (Count)
system.cpu.statIssuedInstType_0::SimdFloatReduceCmp            0      0.00%     87.50% # Number of instructions issued per FU type, per thread (Count)
system.cpu.statIssuedInstType_0::SimdAes            0      0.00%     87.50% # Number of instructions issued per FU type, per thread (Count)
system.cpu.statIssuedInstType_0::SimdAesMix            0      0.00%     87.50% # Number of instructions issued per FU type, per thread (Count)
system.cpu.statIssuedInstType_0::SimdSha1Hash            0      0.00%     87.50% # Number of instructions issued per FU type, per thread (Count)
system.cpu.statIssuedInstType_0::SimdSha1Hash2            0      0.00%     87.50% # Number of instructions issued per FU type, per thread (Count)
system.cpu.statIssuedInstType_0::SimdSha256Hash            0      0.00%     87.50% # Number of instructions issued per FU type, per thread (Count)
system.cpu.statIssuedInstType_0::SimdSha256Hash2            0      0.00%     87.50% # Number of instructions issued per FU type, per thread (Count)
system.cpu.statIssuedInstType_0::SimdShaSigma2            0      0.00%     87.50% # Number of instructions issued per FU type, per thread (Count)
system.cpu.statIssuedInstType_0::SimdShaSigma3            0      0.00%     87.50% # Number of instructions issued per FU type, per thread (Count)
system.cpu.statIssuedInstType_0::SimdPredAlu            0      0.00%     87.50% # Number of instructions issued per FU type, per thread (Count)
system.cpu.statIssuedInstType_0::MemRead      1048580     12.50%    100.00% # Number of instructions issued per FU type, per thread (Count)
system.cpu.statIssuedInstType_0::MemWrite            7      0.00%    100.00% # Number of instructions issued per FU type, per thread (Count)
system.cpu.statIssuedInstType_0::FloatMemRead            0      0.00%    100.00% # Number of instructions issued per FU type, per thread (Count)
system.cpu.statIssuedInstType_0::FloatMemWrite            0      0.00%    100.00% # Number of instructions issued per FU type, per thread (Count)
system.cpu.statIssuedInstType_0::IprAccess            0      0.00%    100.00% # Number of instructions issued per FU type, per thread (Count)
system.cpu.statIssuedInstType_0::InstPrefetch            0      0.00%    100.00% # Number of instructions issued per FU type, per thread (Count)
system.cpu.statIssuedInstType_0::total        8388681                       # Number of instructions issued per FU type, per thread (Count)
system.cpu.issueRate                         2.665759                       # Inst issue rate ((Count/Cycle))
system.cpu.fuBusy                                   9                       # FU busy when requested (Count)
system.cpu.fuBusyRate                        0.000001                       # FU busy rate (busy events/executed inst) ((Count/Count))
system.cpu.intInstQueueReads                 19924198                       # Number of integer instruction queue reads (Count)
system.cpu.intInstQueueWrites                 8388737                       # Number of integer instruction queue writes (Count)
system.cpu.intInstQueueWakeupAccesses         8388673                       # Number of integer instruction queue wakeup accesses (Count)
system.cpu.fpInstQueueReads                         0                       # Number of floating instruction queue reads (Count)
system.cpu.fpInstQueueWrites                        0                       # Number of floating instruction queue writes (Count)
system.cpu.fpInstQueueWakeupAccesses                0                       # Number of floating instruction queue wakeup accesses (Count)
system.cpu.vecInstQueueReads                        0                       # Number of vector instruction queue reads (Count)
system.cpu.vecInstQueueWrites                       0                       # Number of vector instruction queue writes (Count)
system.cpu.vecInstQueueWakeupAccesses               0                       # Number of vector instruction queue wakeup accesses (Count)
system.cpu.intAluAccesses                     8388689                       # Number of integer alu accesses (Count)
system.cpu.fpAluAccesses                            0                       # Number of floating point alu accesses (Count)
system.cpu.vecAluAccesses                           0                       # Number of vector alu accesses (Count)
system.cpu.idleCycles                               0                       # Number of cycles IEW is idle (Cycle)
system.cpu.squashCycles                             4                       # Number of cycles IEW is squashing (Cycle)
system.cpu.blockCycles                              3                       # Number of cycles IEW is blocking (Cycle)
system.cpu.unblockCycles                            0                       # Number of cycles IEW is unblocking (Cycle)
system.cpu.dispatchedInsts                    8388688                       # Number of instructions dispatched to IQ (Count)
system.cpu.dispSquashedInsts                        4                       # Number of squashed instructions skipped by dispatch (Count)
system.cpu.dispLoadInsts                      1048581                       # Number of dispatched load instructions (Count)
system.cpu.dispStoreInsts                           8                       # Number of dispatched store instructions (Count)
system.cpu.dispNonSpecInsts                         3                       # Number of dispatched non-speculative instructions (Count)
system.cpu.iqFullEvents                             0                       # Number of times the IQ has become full, causing a stall (Count)
system.cpu.lsqFullEvents                            0                       # Number of times the LSQ has become full, causing a stall (Count)
system.cpu.memOrderViolationEvents                  0                       # Number of memory order violations (Count)
system.cpu.predictedTakenIncorrect                  1                       # Number of branches that were predicted taken incorrectly (Count)
system.cpu.predictedNotTakenIncorrect               3                       # Number of branches that were predicted not taken incorrectly (Count)
system.cpu.branchMispredicts                        4                       # Number of branch mispredicts detected at execute (Count)
system.cpu.numInsts                           8388674                       # Number of executed instructions (Count)
system.cpu.numLoadInsts                       1048580                       # Number of load instructions executed (Count)
system.cpu.numSquashedInsts                         8                       # Number of squashed instructions skipped in execute (Count)
system.cpu.numSwp                                   0                       # Number of swp insts executed (Count)
system.cpu.numNop                                   0                       # Number of nop insts executed (Count)
system.cpu.numRefs                            1048586                       # Number of memory reference insts executed (Count)
system.cpu.numBranches                        1048586                       # Number of branches executed (Count)
system.cpu.numStoreInsts                            6                       # Number of stores executed (Count)
system.cpu.numRate                           2.665757                       # Inst execution rate ((Count/Cycle))
system.cpu.instsToCommit                      8388673                       # Cumulative count of insts sent to commit (Count)
system.cpu.writebackCount                     8388673                       # Cumulative count of insts written-back (Count)
system.cpu.producerInst                       7340045                       # Number of instructions producing a value (Count)
system.cpu.consumerInst                       8738163                       # Number of instructions consuming a value (Count)
system.cpu.wbRate                            2.665757                       # Insts written-back per cycle ((Count/Cycle))
system.cpu.wbFanout                          0.839999                       # Average fanout of values written-back ((Count/Count))
system.cpu.committedInsts                     4194313                       # Number of Instructions Simulated (Count)
system.cpu.committedOps                       8388625                       # Number of Ops (including micro ops) Simulated (Count)
system.cpu.cpi                               0.750260                       # CPI: Cycles Per Instruction ((Cycle/Count))
system.cpu.totalCpi                          0.750260                       # CPI: Total CPI of All Threads ((Cycle/Count))
system.cpu.ipc                               1.332871                       # IPC: Instructions Per Cycle ((Count/Cycle))
system.cpu.totalIpc                          1.332871                       # IPC: Total IPC of All Threads ((Count/Cycle))
system.cpu.intRegfileReads                    8388686                       # Number of integer regfile reads (Count)
system.cpu.intRegfileWrites                   7340079                       # Number of integer regfile writes (Count)
system.cpu.ccRegfileReads                     5242894                       # number of cc regfile reads (Count)
system.cpu.ccRegfileWrites                    4194324                       # number of cc regfile writes (Count)
system.cpu.miscRegfileReads                   3145758                       # number of misc regfile reads (Count)
system.cpu.MemDepUnit__0.insertedLoads        1048581                       # Number of loads inserted to the mem dependence unit. (Count)
system.cpu.MemDepUnit__0.insertedStores             8                       # Number of stores inserted to the mem dependence unit. (Count)
system.cpu.MemDepUnit__0.conflictingLoads            0                       # Number of conflicting loads. (Count)
system.cpu.MemDepUnit__0.conflictingStores            0                       # Number of conflicting stores. (Count)
system.cpu.MemDepUnit__1.insertedLoads              0                       # Number of loads inserted to the mem dependence unit. (Count)
system.cpu.MemDepUnit__1.insertedStores             0                       # Number of stores inserted to the mem dependence unit. (Count)
system.cpu.MemDepUnit__1.conflictingLoads            0                       # Number of conflicting loads. (Count)
system.cpu.MemDepUnit__1.conflictingStores            0                       # Number of conflicting stores. (Count)
system.cpu.MemDepUnit__2.insertedLoads              0                       # Number of loads inserted to the mem dependence unit. (Count)
system.cpu.MemDepUnit__2.insertedStores             0                       # Number of stores inserted to the mem dependence unit. (Count)
system.cpu.MemDepUnit__2.conflictingLoads            0                       # Number of conflicting loads. (Count)
system.cpu.MemDepUnit__2.conflictingStores            0                       # Number of conflicting stores. (Count)
system.cpu.MemDepUnit__3.insertedLoads              0                       # Number of loads inserted to the mem dependence unit. (Count)
system.cpu.MemDepUnit__3.insertedStores             0                       # Number of stores inserted to the mem dependence unit. (Count)
system.cpu.MemDepUnit__3.conflictingLoads            0                       # Number of conflicting loads. (Count)
system.cpu.MemDepUnit__3.conflictingStores            0                       # Number of conflicting stores. (Count)
system.cpu.branchPred.lookups                 1048595                       # Number of BP lookups (Count)
system.cpu.branchPred.condPredicted           1048582                       # Number of conditional branches predicted (Count)
system.cpu.branchPred.condIncorrect                 6                       # Number of conditional branches incorrect (Count)
system.cpu.branchPred.BTBLookups              1048588                       # Number of BTB lookups (Count)
system.cpu.branchPred.BTBHits                 1048586                       # Number of BTB hits (Count)
system.cpu.branchPred.BTBHitRatio            0.999998                       # BTB Hit Ratio (Ratio)
system.cpu.branchPred.RASUsed                       4                       # Number of times the RAS was used to get a target. (Count)
system.cpu.branchPred.RASIncorrect                  0                       # Number of incorrect RAS predictions. (Count)
system.cpu.branchPred.indirectLookups               1                       # Number of indirect predictor lookups. (Count)
system.cpu.branchPred.indirectHits                  0                       # Number of indirect target hits. (Count)
system.cpu.branchPred.indirectMisses                1                       # Number of indirect misses. (Count)
system.cpu.branchPred.indirectMispredicted            0                       # Number of mispredicted indirect branches. (Count)
system.cpu.commit.commitSquashedInsts              49                       # The number of squashed insts skipped by commit (Count)
system.cpu.commit.commitNonSpecStalls               1                       # The number of times commit has been forced to stall to communicate backwards (Count)
system.cpu.commit.branchMispredicts                 4                       # The number of times a branch was mispredicted (Count)
system.cpu.commit.numCommittedDist::samples      3146819                       # Number of insts commited each cycle (Count)
system.cpu.commit.numCommittedDist::mean     2.665748                       # Number of insts commited each cycle (Count)
system.cpu.commit.numCommittedDist::stdev     3.770909                       # Number of insts commited each cycle (Count)
system.cpu.commit.numCommittedDist::underflows            0      0.00%      0.00% # Number of insts commited each cycle (Count)
system.cpu.commit.numCommittedDist::0         2098238     66.68%     66.68% # Number of insts commited each cycle (Count)
system.cpu.commit.numCommittedDist::1               1      0.00%     66.68% # Number of insts commited each cycle (Count)
system.cpu.commit.numCommittedDist::2               0      0.00%     66.68% # Number of insts commited each cycle (Count)
system.cpu.commit.numCommittedDist::3               2      0.00%     66.68% # Number of insts commited each cycle (Count)
system.cpu.commit.numCommittedDist::4               0      0.00%     66.68% # Number of insts commited each cycle (Count)
system.cpu.commit.numCommittedDist::5               2      0.00%     66.68% # Number of insts commited each cycle (Count)
system.cpu.commit.numCommittedDist::6               0      0.00%     66.68% # Number of insts commited each cycle (Count)
system.cpu.commit.numCommittedDist::7               0      0.00%     66.68% # Number of insts commited each cycle (Count)
system.cpu.commit.numCommittedDist::8         1048576     33.32%    100.00% # Number of insts commited each cycle (Count)
system.cpu.commit.numCommittedDist::overflows            0      0.00%    100.00% # Number of insts commited each cycle (Count)
system.cpu.commit.numCommittedDist::min_value            0                       # Number of insts commited each cycle (Count)
system.cpu.commit.numCommittedDist::max_value            8                       # Number of insts commited each cycle (Count)
system.cpu.commit.numCommittedDist::total      3146819                       # Number of insts commited each cycle (Count)
system.cpu.commit.instsCommitted              4194313                       # Number of instructions committed (Count)
system.cpu.commit.opsCommitted                8388625                       # Number of ops (including micro ops) committed (Count)
system.cpu.commit.memRefs                     1048578                       # Number of memory references committed (Count)
system.cpu.commit.loads                       1048577                       # Number of loads committed (Count)
system.cpu.commit.amos                              0                       # Number of atomic instructions committed (Count)
system.cpu.commit.membars                           0                       # Number of memory barriers committed (Count)
system.cpu.commit.branches                    1048579                       # Number of branches committed (Count)
system.cpu.commit.vectorInstructions                0                       # Number of committed Vector instructions. (Count)
system.cpu.commit.floating                          0                       # Number of committed floating point instructions. (Count)
system.cpu.commit.integer                     8388623                       # Number of committed integer instructions. (Count)
system.cpu.commit.functionCalls                     1                       # Number of function calls committed. (Count)
system.cpu.commit.committedInstType_0::No_OpClass            1      0.00%      0.00% # Class of committed instruction (Count)
system.cpu.commit.committedInstType_0::IntAlu      7340046     87.50%     87.50% # Class of committed instruction (Count)
system.cpu.commit.committedInstType_0::IntMult            0      0.00%     87.50% # Class of committed instruction (Count)
system.cpu.commit.committedInstType_0::IntDiv            0      0.00%     87.50% # Class of committed instruction (Count)
system.cpu.commit.committedInstType_0::FloatAdd            0      0.00%     87.50% # Class of committed instruction (Count)
system.cpu.commit.committedInstType_0::FloatCmp            0      0.00%     87.50% # Class of committed instruction (Count)
system.cpu.commit.committedInstType_0::FloatCvt            0      0.00%     87.50% # Class of committed instruction (Count)
system.cpu.commit.committedInstType_0::FloatMult            0      0.00%     87.50% # Class of committed instruction (Count)
system.cpu.commit.committedInstType_0::FloatMultAcc            0      0.00%     87.50% # Class of committed instruction (Count)
system.cpu.commit.committedInstType_0::FloatDiv            0      0.00%     87.50% # Class of committed instruction (Count)
system.cpu.commit.committedInstType_0::FloatMisc            0      0.00%     87.50% # Class of committed instruction (Count)
system.cpu.commit.committedInstType_0::FloatSqrt            0      0.00%     87.50% # Class of committed instruction (Count)
system.cpu.commit.committedInstType_0::SimdAdd            0      0.00%     87.50% # Class of committed instruction (Count)
system.cpu.commit.committedInstType_0::SimdAddAcc            0      0.00%     87.50% # Class of committed instruction (Count)
system.cpu.commit.committedInstType_0::SimdAlu            0      0.00%     87.50% # Class of committed instruction (Count)
system.cpu.commit.committedInstType_0::SimdCmp            0      0.00%     87.50% # Class of committed instruction (Count)
system.cpu.commit.committedInstType_0::SimdCvt            0      0.00%     87.50% # Class of committed instruction (Count)
system.cpu.commit.committedInstType_0::SimdMisc            0      0.00%     87.50% # Class of committed instruction (Count)
system.cpu.commit.committedInstType_0::SimdMult            0      0.00%     87.50% # Class of committed instruction (Count)
system.cpu.commit.committedInstType_0::SimdMultAcc            0      0.00%     87.50% # Class of committed instruction (Count)
system.cpu.commit.committedInstType_0::SimdShift            0      0.00%     87.50% # Class of committed instruction (Count)
system.cpu.commit.committedInstType_0::SimdShiftAcc            0      0.00%     87.50% # Class of committed instruction (Count)
system.cpu.commit.committedInstType_0::SimdDiv            0      0.00%     87.50% # Class of committed instruction (Count)
system.cpu.commit.committedInstType_0::SimdSqrt            0      0.00%     87.50% # Class of committed instruction (Count)
system.cpu.commit.committedInstType_0::SimdFloatAdd            0      0.00%     87.50% # Class of committed instruction (Count)
system.cpu.commit.committedInstType_0::SimdFloatAlu            0      0.00%     87.50% # Class of committed instruction (Count)
system.cpu.commit.committedInstType_0::SimdFloatCmp            0      0.00%     87.50% # Class of committed instruction (Count)
system.cpu.commit.committedInstType_0::SimdFloatCvt            0      0.00%     87.50% # Class of committed instruction (Count)
system.cpu.commit.committedInstType_0::SimdFloatDiv            0      0.00%     87.50% # Class of committed instruction (Count)
system.cpu.commit.committedInstType_0::SimdFloatMisc            0      0.00%     87.50% # Class of committed instruction (Count)
system.cpu.commit.committedInstType_0::SimdFloatMult            0      0.00%     87.50% # Class of committed instruction (Count)
system.cpu.commit.committedInstType_0::SimdFloatMultAcc            0      0.00%     87.50% # Class of committed instruction (Count)
system.cpu.commit.committedInstType_0::SimdFloatSqrt            0      0.00%     87.50% # Class of committed instruction (Count)
system.cpu.commit.committedInstType_0::SimdReduceAdd            0      0.00%     87.50% # Class of committed instruction (Count)
system.cpu.commit.committedInstType_0::SimdReduceAlu            0      0.00%     87.50% # Class of committed instruction (Count)
system.cpu.commit.committedInstType_0::SimdReduceCmp            0      0.00%     87.50% # Class of committed instruction (Count)
system.cpu.commit.committedInstType_0::SimdFloatReduceAdd            0      0.00%     87.50% # Class of committed instruction (Count)
system.cpu.commit.committedInstType_0::SimdFloatReduceCmp            0      0.00%     87.50% # Class of committed instruction (Count)
system.cpu.commit.committedInstType_0::SimdAes            0      0.00%     87.50% # Class of committed instruction (Count)
system.cpu.commit.committedInstType_0::SimdAesMix            0      0.00%     87.50% # Class of committed instruction (Count)
system.cpu.commit.committedInstType_0::SimdSha1Hash            0      0.00%     87.50% # Class of committed instruction (Count)
system.cpu.commit.committedInstType_0::SimdSha1Hash2            0      0.00%     87.50% # Class of committed instruction (Count)
system.cpu.commit.committedInstType_0::SimdSha256Hash            0      0.00%     87.50% # Class of committed instruction (Count)
system.cpu.commit.committedInstType_0::SimdSha256Hash2            0      0.00%     87.50% # Class of committed instruction (Count)
system.cpu.commit.committedInstType_0::SimdShaSigma2            0      0.00%     87.50% # Class of committed instruction (Count)
system.cpu.commit.committedInstType_0::SimdShaSigma3            0      0.00%     87.50% # Class of committed instruction (Count)
system.cpu.commit.committedInstType_0::SimdPredAlu            0      0.00%     87.50% # Class of committed instruction (Count)
system.cpu.commit.committedInstType_0::MemRead      1048577     12.50%    100.00% # Class of committed instruction (Count)
system.cpu.commit.committedInstType_0::MemWrite            1      0.00%    100.00% # Class of committed instruction (Count)
system.cpu.commit.committedInstType_0::FloatMemRead            0      0.00%    100.00% # Class of committed instruction (Count)
system.cpu.commit.committedInstType_0::FloatMemWrite            0      0.00%    100.00% # Class of committed instruction (Count)
system.cpu.commit.committedInstType_0::IprAccess            0      0.00%    100.00% # Class of committed instruction (Count)
system.cpu.commit.committedInstType_0::InstPrefetch            0      0.00%    100.00% # Class of committed instruction (Count)
system.cpu.commit.committedInstType_0::total      8388625                       # Class of committed instruction (Count)
system.cpu.commit.commitEligibleSamples       1048576                       # number cycles where commit BW limit reached (Cycle)
system.cpu.decode.idleCycles                   349603                       # Number of cycles decode is idle (Cycle)
system.cpu.decode.blockedCycles               1748627                       # Number of cycles decode is blocked (Cycle)
system.cpu.decode.runCycles                        36                       # Number of cycles decode is running (Cycle)
system.cpu.decode.unblockCycles               1048556                       # Number of cycles decode is unblocking (Cycle)
system.cpu.decode.squashCycles                      4                       # Number of cycles decode is squashing (Cycle)
system.cpu.decode.branchResolved              1048583                       # Number of times decode resolved a branch (Count)
system.cpu.decode.branchMispred                     1                       # Number of times decode detected a branch misprediction (Count)
system.cpu.decode.decodedInsts                8388685                       # Number of instructions handled by decode (Count)
system.cpu.decode.squashedInsts                    16                       # Number of squashed instructions handled by decode (Count)
system.cpu.fetch.icacheStallCycles                 84                       # Number of cycles fetch is stalled on an Icache miss (Cycle)
system.cpu.fetch.insts                        4194360                       # Number of instructions fetch has processed (Count)
system.cpu.fetch.branches                     1048595                       # Number of branches that fetch encountered (Count)
system.cpu.fetch.predictedBranches            1048590                       # Number of branches that fetch has predicted taken (Count)
system.cpu.fetch.cycles                       3146736                       # Number of cycles fetch has run and was not squashing or blocked (Cycle)
system.cpu.fetch.squashCycles                      12                       # Number of cycles fetch has spent squashing (Cycle)
system.cpu.fetch.cacheLines                        14                       # Number of cache lines fetched (Count)
[...]
system.mem_ctrl.rdPerTurnAround::16            233045     89.52%     97.70% # Reads before turning the bus around for writes (Count)
system.mem_ctrl.rdPerTurnAround::17              5921      2.27%     99.98% # Reads before turning the bus around for writes (Count)
system.mem_ctrl.rdPerTurnAround::18                48      0.02%    100.00% # Reads before turning the bus around for writes (Count)
system.mem_ctrl.rdPerTurnAround::19                 5      0.00%    100.00% # Reads before turning the bus around for writes (Count)
system.mem_ctrl.rdPerTurnAround::20                 1      0.00%    100.00% # Reads before turning the bus around for writes (Count)
system.mem_ctrl.rdPerTurnAround::21                 1      0.00%    100.00% # Reads before turning the bus around for writes (Count)
system.mem_ctrl.rdPerTurnAround::22                 1      0.00%    100.00% # Reads before turning the bus around for writes (Count)
system.mem_ctrl.rdPerTurnAround::total         260318                       # Reads before turning the bus around for writes (Count)
system.mem_ctrl.wrPerTurnAround::samples       260318                       # Writes before turning the bus around for reads (Count)
system.mem_ctrl.wrPerTurnAround::mean       16.010464                       # Writes before turning the bus around for reads (Count)
system.mem_ctrl.wrPerTurnAround::gmean      16.010150                       # Writes before turning the bus around for reads (Count)
system.mem_ctrl.wrPerTurnAround::stdev       0.102435                       # Writes before turning the bus around for reads (Count)
system.mem_ctrl.wrPerTurnAround::16            257605     98.96%     98.96% # Writes before turning the bus around for reads (Count)
system.mem_ctrl.wrPerTurnAround::17              2707      1.04%    100.00% # Writes before turning the bus around for reads (Count)
system.mem_ctrl.wrPerTurnAround::18                 3      0.00%    100.00% # Writes before turning the bus around for reads (Count)
system.mem_ctrl.wrPerTurnAround::19                 1      0.00%    100.00% # Writes before turning the bus around for reads (Count)
system.mem_ctrl.wrPerTurnAround::20                 2      0.00%    100.00% # Writes before turning the bus around for reads (Count)
system.mem_ctrl.wrPerTurnAround::total         260318                       # Writes before turning the bus around for reads (Count)
system.mem_ctrl.bytesReadWrQ                  1485696                       # Total number of bytes read from write queue (Byte)
system.mem_ctrl.bytesReadSys                267013632                       # Total read bytes from the system interface side (Byte)
system.mem_ctrl.bytesWrittenSys             267013632                       # Total written bytes from the system interface side (Byte)
system.mem_ctrl.avgRdBWSys               794393515.13093483                       # Average system read bandwidth in Byte/s ((Byte/Second))
system.mem_ctrl.avgWrBWSys               794393515.13093483                       # Average system write bandwidth in Byte/s ((Byte/Second))
system.mem_ctrl.totGap                   336122683000                       # Total gap between requests (Tick)
system.mem_ctrl.avgGap                       40282.31                       # Average gap between requests ((Tick/Count))
system.mem_ctrl.requestorReadBytes::caches.controllers1    265527936                       # Per-requestor bytes read from memory (Byte)
system.mem_ctrl.requestorWriteBytes::caches.controllers1    266739968                       # Per-requestor bytes write to memory (Byte)
system.mem_ctrl.requestorReadRate::caches.controllers1 789973413.958512425423                       # Per-requestor bytes read from memory rate ((Byte/Second))
system.mem_ctrl.requestorWriteRate::caches.controllers1 793579336.074620604515                       # Per-requestor bytes write to memory rate ((Byte/Second))
system.mem_ctrl.requestorReadAccesses::caches.controllers1      4172088                       # Per-requestor read serviced memory accesses (Count)
system.mem_ctrl.requestorWriteAccesses::caches.controllers1      4172088                       # Per-requestor write serviced memory accesses (Count)
system.mem_ctrl.requestorReadTotalLat::caches.controllers1 167519879500                       # Per-requestor read total memory access latency (Tick)
system.mem_ctrl.requestorWriteTotalLat::caches.controllers1 8322405601500                       # Per-requestor write total memory access latency (Tick)
system.mem_ctrl.requestorReadAvgLat::caches.controllers1     40152.53                       # Per-requestor read average memory access latency ((Tick/Count))
system.mem_ctrl.requestorWriteAvgLat::caches.controllers1   1994781.89                       # Per-requestor write average memory access latency ((Tick/Count))
system.mem_ctrl.dram.bytesRead::caches.controllers1    267013568                       # Number of bytes read from this memory (Byte)
system.mem_ctrl.dram.bytesRead::total       267013568                       # Number of bytes read from this memory (Byte)
system.mem_ctrl.dram.bytesWritten::caches.controllers1    267013632                       # Number of bytes written to this memory (Byte)
system.mem_ctrl.dram.bytesWritten::total    267013632                       # Number of bytes written to this memory (Byte)
system.mem_ctrl.dram.numReads::caches.controllers1      4172087                       # Number of read requests responded to by this memory (Count)
system.mem_ctrl.dram.numReads::total          4172087                       # Number of read requests responded to by this memory (Count)
system.mem_ctrl.dram.numWrites::caches.controllers1      4172088                       # Number of write requests responded to by this memory (Count)
system.mem_ctrl.dram.numWrites::total         4172088                       # Number of write requests responded to by this memory (Count)
system.mem_ctrl.dram.bwRead::caches.controllers1    794393325                       # Total read bandwidth from this memory ((Byte/Second))
system.mem_ctrl.dram.bwRead::total          794393325                       # Total read bandwidth from this memory ((Byte/Second))
system.mem_ctrl.dram.bwWrite::caches.controllers1    794393515                       # Write bandwidth from this memory ((Byte/Second))
system.mem_ctrl.dram.bwWrite::total         794393515                       # Write bandwidth from this memory ((Byte/Second))
system.mem_ctrl.dram.bwTotal::caches.controllers1   1588786840                       # Total bandwidth to/from this memory ((Byte/Second))
system.mem_ctrl.dram.bwTotal::total        1588786840                       # Total bandwidth to/from this memory ((Byte/Second))
system.mem_ctrl.dram.readBursts               4148874                       # Number of DRAM read bursts (Count)
system.mem_ctrl.dram.writeBursts              4167812                       # Number of DRAM write bursts (Count)
system.mem_ctrl.dram.perBankRdBursts::0        259261                       # Per bank write bursts (Count)
system.mem_ctrl.dram.perBankRdBursts::1        259725                       # Per bank write bursts (Count)
system.mem_ctrl.dram.perBankRdBursts::2        259950                       # Per bank write bursts (Count)
system.mem_ctrl.dram.perBankRdBursts::3        259581                       # Per bank write bursts (Count)
system.mem_ctrl.dram.perBankRdBursts::4        259220                       # Per bank write bursts (Count)
system.mem_ctrl.dram.perBankRdBursts::5        259469                       # Per bank write bursts (Count)
system.mem_ctrl.dram.perBankRdBursts::6        259369                       # Per bank write bursts (Count)
system.mem_ctrl.dram.perBankRdBursts::7        259205                       # Per bank write bursts (Count)
system.mem_ctrl.dram.perBankRdBursts::8        259132                       # Per bank write bursts (Count)
system.mem_ctrl.dram.perBankRdBursts::9        323084                       # Per bank write bursts (Count)
system.mem_ctrl.dram.perBankRdBursts::10       194325                       # Per bank write bursts (Count)
system.mem_ctrl.dram.perBankRdBursts::11       259531                       # Per bank write bursts (Count)
system.mem_ctrl.dram.perBankRdBursts::12       258799                       # Per bank write bursts (Count)
system.mem_ctrl.dram.perBankRdBursts::13       259917                       # Per bank write bursts (Count)
system.mem_ctrl.dram.perBankRdBursts::14       259231                       # Per bank write bursts (Count)
system.mem_ctrl.dram.perBankRdBursts::15       259075                       # Per bank write bursts (Count)
system.mem_ctrl.dram.perBankWrBursts::0        260770                       # Per bank write bursts (Count)
system.mem_ctrl.dram.perBankWrBursts::1        261086                       # Per bank write bursts (Count)
system.mem_ctrl.dram.perBankWrBursts::2        260630                       # Per bank write bursts (Count)
system.mem_ctrl.dram.perBankWrBursts::3        260579                       # Per bank write bursts (Count)
system.mem_ctrl.dram.perBankWrBursts::4        260380                       # Per bank write bursts (Count)
system.mem_ctrl.dram.perBankWrBursts::5        260460                       # Per bank write bursts (Count)
system.mem_ctrl.dram.perBankWrBursts::6        260593                       # Per bank write bursts (Count)
system.mem_ctrl.dram.perBankWrBursts::7        260224                       # Per bank write bursts (Count)
system.mem_ctrl.dram.perBankWrBursts::8        260508                       # Per bank write bursts (Count)
system.mem_ctrl.dram.perBankWrBursts::9        325141                       # Per bank write bursts (Count)
system.mem_ctrl.dram.perBankWrBursts::10       195254                       # Per bank write bursts (Count)
system.mem_ctrl.dram.perBankWrBursts::11       260410                       # Per bank write bursts (Count)
system.mem_ctrl.dram.perBankWrBursts::12       259820                       # Per bank write bursts (Count)
system.mem_ctrl.dram.perBankWrBursts::13       260985                       # Per bank write bursts (Count)
system.mem_ctrl.dram.perBankWrBursts::14       260707                       # Per bank write bursts (Count)
system.mem_ctrl.dram.perBankWrBursts::15       260265                       # Per bank write bursts (Count)
system.mem_ctrl.dram.totQLat              89728492000                       # Total ticks spent queuing (Tick)
system.mem_ctrl.dram.totBusLat            20744370000                       # Total ticks spent in databus transfers (Tick)
system.mem_ctrl.dram.totMemAccLat        167519879500                       # Total ticks spent from burst creation until serviced by the DRAM (Tick)
system.mem_ctrl.dram.avgQLat                 21627.19                       # Average queueing delay per DRAM burst ((Tick/Count))
system.mem_ctrl.dram.avgBusLat                5000.00                       # Average bus latency per DRAM burst ((Tick/Count))
system.mem_ctrl.dram.avgMemAccLat            40377.19                       # Average memory access latency per DRAM burst ((Tick/Count))
system.mem_ctrl.dram.readRowHits              1463878                       # Number of row buffer hits during reads (Count)
system.mem_ctrl.dram.writeRowHits             3166526                       # Number of row buffer hits during writes (Count)
system.mem_ctrl.dram.readRowHitRate             35.28                       # Row buffer hit rate for reads (Ratio)
system.mem_ctrl.dram.writeRowHitRate            75.98                       # Row buffer hit rate for writes (Ratio)
system.mem_ctrl.dram.bytesPerActivate::samples      3686279                       # Bytes accessed per row activation (Byte)
system.mem_ctrl.dram.bytesPerActivate::mean   144.390694                       # Bytes accessed per row activation (Byte)
system.mem_ctrl.dram.bytesPerActivate::gmean   120.075166                       # Bytes accessed per row activation (Byte)
system.mem_ctrl.dram.bytesPerActivate::stdev    95.898798                       # Bytes accessed per row activation (Byte)
system.mem_ctrl.dram.bytesPerActivate::0-127      1472798     39.95%     39.95% # Bytes accessed per row activation (Byte)
system.mem_ctrl.dram.bytesPerActivate::128-255      1591874     43.18%     83.14% # Bytes accessed per row activation (Byte)
system.mem_ctrl.dram.bytesPerActivate::256-383       481402     13.06%     96.20% # Bytes accessed per row activation (Byte)
system.mem_ctrl.dram.bytesPerActivate::384-511       107360      2.91%     99.11% # Bytes accessed per row activation (Byte)
system.mem_ctrl.dram.bytesPerActivate::512-639        24631      0.67%     99.78% # Bytes accessed per row activation (Byte)
system.mem_ctrl.dram.bytesPerActivate::640-767         5747      0.16%     99.93% # Bytes accessed per row activation (Byte)
system.mem_ctrl.dram.bytesPerActivate::768-895         1627      0.04%     99.98% # Bytes accessed per row activation (Byte)
system.mem_ctrl.dram.bytesPerActivate::896-1023          530      0.01%     99.99% # Bytes accessed per row activation (Byte)
system.mem_ctrl.dram.bytesPerActivate::1024-1151          310      0.01%    100.00% # Bytes accessed per row activation (Byte)
system.mem_ctrl.dram.bytesPerActivate::total      3686279                       # Bytes accessed per row activation (Byte)
system.mem_ctrl.dram.bytesRead              265527936                       # Total number of bytes read from DRAM (Byte)
system.mem_ctrl.dram.bytesWritten           266739968                       # Total number of bytes written to DRAM (Byte)
system.mem_ctrl.dram.avgRdBW               789.973414                       # Average DRAM read bandwidth in MiBytes/s ((Byte/Second))
system.mem_ctrl.dram.avgWrBW               793.579336                       # Average DRAM write bandwidth in MiBytes/s ((Byte/Second))
system.mem_ctrl.dram.peakBW                  12800.00                       # Theoretical peak bandwidth in MiByte/s ((Byte/Second))
system.mem_ctrl.dram.busUtil                    12.37                       # Data bus utilization in percentage (Ratio)
system.mem_ctrl.dram.busUtilRead                 6.17                       # Data bus utilization in percentage for reads (Ratio)
system.mem_ctrl.dram.busUtilWrite                6.20                       # Data bus utilization in percentage for writes (Ratio)
system.mem_ctrl.dram.pageHitRate                55.68                       # Row buffer hit rate, read and write combined (Ratio)
system.mem_ctrl.dram.power_state.pwrStateResidencyTicks::UNDEFINED 344562846000                       # Cumulative time (in ticks) in various power states (Tick)
system.mem_ctrl.dram.rank0.actEnergy      13003075260                       # Energy for activate commands per rank (pJ) (Joule)
system.mem_ctrl.dram.rank0.preEnergy       6911271840                       # Energy for precharge commands per rank (pJ) (Joule)
system.mem_ctrl.dram.rank0.readEnergy     14821476180                       # Energy for read commands per rank (pJ) (Joule)
system.mem_ctrl.dram.rank0.writeEnergy    10882593360                       # Energy for write commands per rank (pJ) (Joule)
system.mem_ctrl.dram.rank0.refreshEnergy 26533394160.000004                       # Energy for refresh commands per rank (pJ) (Joule)
system.mem_ctrl.dram.rank0.actBackEnergy 151358306730                       # Energy for active background per rank (pJ) (Joule)
system.mem_ctrl.dram.rank0.preBackEnergy   1613627520                       # Energy for precharge background per rank (pJ) (Joule)
system.mem_ctrl.dram.rank0.actPowerDownEnergy            0                       # Energy for active power-down per rank (pJ) (Joule)
system.mem_ctrl.dram.rank0.prePowerDownEnergy            0                       # Energy for precharge power-down per rank (pJ) (Joule)
system.mem_ctrl.dram.rank0.selfRefreshEnergy            0                       # Energy for self refresh per rank (pJ) (Joule)
system.mem_ctrl.dram.rank0.totalEnergy   225123745050                       # Total energy per rank (pJ) (Joule)
system.mem_ctrl.dram.rank0.averagePower    669.766715                       # Core power per rank (mW) (Watt)
system.mem_ctrl.dram.rank0.totalIdleTime            0                       # Total Idle time Per DRAM Rank (Tick)
system.mem_ctrl.dram.rank0.pwrStateTime::IDLE   2963297000                       # Time in different power states (Tick)
system.mem_ctrl.dram.rank0.pwrStateTime::REF  11223940000                       # Time in different power states (Tick)
system.mem_ctrl.dram.rank0.pwrStateTime::SREF            0                       # Time in different power states (Tick)
system.mem_ctrl.dram.rank0.pwrStateTime::PRE_PDN            0                       # Time in different power states (Tick)
system.mem_ctrl.dram.rank0.pwrStateTime::ACT 321941029250                       # Time in different power states (Tick)
system.mem_ctrl.dram.rank0.pwrStateTime::ACT_PDN            0                       # Time in different power states (Tick)
system.mem_ctrl.dram.rank1.actEnergy      13317892140                       # Energy for activate commands per rank (pJ) (Joule)
system.mem_ctrl.dram.rank1.preEnergy       7078604775                       # Energy for precharge commands per rank (pJ) (Joule)
system.mem_ctrl.dram.rank1.readEnergy     14802319560                       # Energy for read commands per rank (pJ) (Joule)
system.mem_ctrl.dram.rank1.writeEnergy    10874079540                       # Energy for write commands per rank (pJ) (Joule)
system.mem_ctrl.dram.rank1.refreshEnergy 26533394160.000004                       # Energy for refresh commands per rank (pJ) (Joule)
system.mem_ctrl.dram.rank1.actBackEnergy 151395010740                       # Energy for active background per rank (pJ) (Joule)
system.mem_ctrl.dram.rank1.preBackEnergy   1582691040                       # Energy for precharge background per rank (pJ) (Joule)
system.mem_ctrl.dram.rank1.actPowerDownEnergy            0                       # Energy for active power-down per rank (pJ) (Joule)
system.mem_ctrl.dram.rank1.prePowerDownEnergy            0                       # Energy for precharge power-down per rank (pJ) (Joule)
system.mem_ctrl.dram.rank1.selfRefreshEnergy            0                       # Energy for self refresh per rank (pJ) (Joule)
system.mem_ctrl.dram.rank1.totalEnergy   225583991955                       # Total energy per rank (pJ) (Joule)
system.mem_ctrl.dram.rank1.averagePower    671.135998                       # Core power per rank (mW) (Watt)
system.mem_ctrl.dram.rank1.totalIdleTime            0                       # Total Idle time Per DRAM Rank (Tick)
system.mem_ctrl.dram.rank1.pwrStateTime::IDLE   2869631000                       # Time in different power states (Tick)
system.mem_ctrl.dram.rank1.pwrStateTime::REF  11223940000                       # Time in different power states (Tick)
system.mem_ctrl.dram.rank1.pwrStateTime::SREF            0                       # Time in different power states (Tick)
system.mem_ctrl.dram.rank1.pwrStateTime::PRE_PDN            0                       # Time in different power states (Tick)
system.mem_ctrl.dram.rank1.pwrStateTime::ACT 322034623000                       # Time in different power states (Tick)
system.mem_ctrl.dram.rank1.pwrStateTime::ACT_PDN            0                       # Time in different power states (Tick)
system.mem_ctrl.power_state.pwrStateResidencyTicks::UNDEFINED 344562846000                       # Cumulative time (in ticks) in various power states (Tick)
system.workload.inst.arm                            0                       # number of arm instructions executed (Count)
system.workload.inst.quiesce                        0                       # number of quiesce instructions executed (Count)

---------- End Simulation Statistics   ----------
