
---------- Begin Simulation Statistics ----------
simSeconds                                   0.073829                       # Number of seconds simulated (Second)
simTicks                                  73829197000                       # Number of ticks simulated (Tick)
finalTick                                 73829197000                       # Number of ticks from beginning of simulation (restored from checkpoints and never reset) (Tick)
simFreq                                  1000000000000                       # The number of ticks per simulated second ((Tick/Second))
hostSeconds                                    220.95                       # Real time elapsed on the host (Second)
hostTickRate                                334146961                       # The number of ticks simulated per host second (ticks/s) ((Tick/Second))
hostMemory                                    9639676                       # Number of bytes of host memory used (Byte)
simInsts                                     46698355                       # Number of instructions simulated (Count)
simOps                                       83201955                       # Number of ops (including micro ops) simulated (Count)
hostInstRate                                   211354                       # Simulator instruction rate (inst/s) ((Count/Second))
hostOpRate                                     376567                       # Simulator op (including micro ops) rate (op/s) ((Count/Second))
system.caches.delayHistogram::bucket_size           16                       # delay histogram for all message
system.caches.delayHistogram::max_bucket          159                       # delay histogram for all message
system.caches.delayHistogram::samples         1939834                       # delay histogram for all message
system.caches.delayHistogram::mean           0.345176                       # delay histogram for all message
system.caches.delayHistogram::stdev          1.470776                       # delay histogram for all message
system.caches.delayHistogram             |     1938392     99.93%     99.93% |        1328      0.07%     99.99% |          97      0.01%    100.00% |          15      0.00%    100.00% |           1      0.00%    100.00% |           1      0.00%    100.00% |           0      0.00%    100.00% |           0      0.00%    100.00% |           0      0.00%    100.00% |           0      0.00%    100.00% # delay histogram for all message (Unspecified)
system.caches.delayHistogram::total           1939834                       # delay histogram for all message
system.caches.m_outstandReqHistSeqr::bucket_size            2                      
system.caches.m_outstandReqHistSeqr::max_bucket           19                      
system.caches.m_outstandReqHistSeqr::samples     27760391                      
system.caches.m_outstandReqHistSeqr::mean     1.683484                      
system.caches.m_outstandReqHistSeqr::gmean     1.474245                      
system.caches.m_outstandReqHistSeqr::stdev     1.023996                      
system.caches.m_outstandReqHistSeqr      |    15653468     56.39%     56.39% |    10449335     37.64%     94.03% |     1485365      5.35%     99.38% |      119439      0.43%     99.81% |       25295      0.09%     99.90% |       16486      0.06%     99.96% |        6597      0.02%     99.98% |        2894      0.01%     99.99% |        1512      0.01%    100.00% |           0      0.00%    100.00% (Unspecified)
system.caches.m_outstandReqHistSeqr::total     27760391                      
system.caches.m_latencyHistSeqr::bucket_size           64                      
system.caches.m_latencyHistSeqr::max_bucket          639                      
system.caches.m_latencyHistSeqr::samples     28074209                      
system.caches.m_latencyHistSeqr::mean        2.717608                      
system.caches.m_latencyHistSeqr::gmean       1.158108                      
system.caches.m_latencyHistSeqr::stdev      11.092450                      
system.caches.m_latencyHistSeqr          |    27918727     99.45%     99.45% |      111130      0.40%     99.84% |       32422      0.12%     99.96% |        7712      0.03%     99.98% |        2410      0.01%     99.99% |        1305      0.00%    100.00% |         282      0.00%    100.00% |         183      0.00%    100.00% |          38      0.00%    100.00% |           0      0.00%    100.00% (Unspecified)
system.caches.m_latencyHistSeqr::total       28074209                      
system.caches.m_hitLatencyHistSeqr::bucket_size           64                      
system.caches.m_hitLatencyHistSeqr::max_bucket          639                      
system.caches.m_hitLatencyHistSeqr::samples     27104276                      
system.caches.m_hitLatencyHistSeqr::mean     1.093465                      
system.caches.m_hitLatencyHistSeqr::gmean     1.019303                      
system.caches.m_hitLatencyHistSeqr::stdev     1.892565                      
system.caches.m_hitLatencyHistSeqr       |    27100967     99.99%     99.99% |        2284      0.01%    100.00% |         750      0.00%    100.00% |         152      0.00%    100.00% |          84      0.00%    100.00% |          23      0.00%    100.00% |          12      0.00%    100.00% |           4      0.00%    100.00% |           0      0.00%    100.00% |           0      0.00%    100.00% (Unspecified)
system.caches.m_hitLatencyHistSeqr::total     27104276                      
system.caches.m_missLatencyHistSeqr::bucket_size           64                      
system.caches.m_missLatencyHistSeqr::max_bucket          639                      
system.caches.m_missLatencyHistSeqr::samples       969933                      
system.caches.m_missLatencyHistSeqr::mean    48.103450                      
system.caches.m_missLatencyHistSeqr::gmean    41.034900                      
system.caches.m_missLatencyHistSeqr::stdev    36.437918                      
system.caches.m_missLatencyHistSeqr      |      817760     84.31%     84.31% |      108846     11.22%     95.53% |       31672      3.27%     98.80% |        7560      0.78%     99.58% |        2326      0.24%     99.82% |        1282      0.13%     99.95% |         270      0.03%     99.98% |         179      0.02%    100.00% |          38      0.00%    100.00% |           0      0.00%    100.00% (Unspecified)
system.caches.m_missLatencyHistSeqr::total       969933                      
system.caches.delayVCHist.vnet_1::bucket_size            4                       # delay histogram for vnet_1
system.caches.delayVCHist.vnet_1::max_bucket           39                       # delay histogram for vnet_1
system.caches.delayVCHist.vnet_1::samples       969933                       # delay histogram for vnet_1
system.caches.delayVCHist.vnet_1::mean       0.031309                       # delay histogram for vnet_1
system.caches.delayVCHist.vnet_1::stdev      0.432969                       # delay histogram for vnet_1
system.caches.delayVCHist.vnet_1         |      965415     99.53%     99.53% |        3479      0.36%     99.89% |         995      0.10%    100.00% |          23      0.00%    100.00% |          20      0.00%    100.00% |           1      0.00%    100.00% |           0      0.00%    100.00% |           0      0.00%    100.00% |           0      0.00%    100.00% |           0      0.00%    100.00% # delay histogram for vnet_1 (Unspecified)
system.caches.delayVCHist.vnet_1::total        969933                       # delay histogram for vnet_1
system.caches.delayVCHist.vnet_2::bucket_size           16                       # delay histogram for vnet_2
system.caches.delayVCHist.vnet_2::max_bucket          159                       # delay histogram for vnet_2
system.caches.delayVCHist.vnet_2::samples       969901                       # delay histogram for vnet_2
system.caches.delayVCHist.vnet_2::mean       0.659053                       # delay histogram for vnet_2
system.caches.delayVCHist.vnet_2::stdev      1.985431                       # delay histogram for vnet_2
system.caches.delayVCHist.vnet_2         |      968480     99.85%     99.85% |        1307      0.13%     99.99% |          97      0.01%    100.00% |          15      0.00%    100.00% |           1      0.00%    100.00% |           1      0.00%    100.00% |           0      0.00%    100.00% |           0      0.00%    100.00% |           0      0.00%    100.00% |           0      0.00%    100.00% # delay histogram for vnet_2 (Unspecified)
system.caches.delayVCHist.vnet_2::total        969901                       # delay histogram for vnet_2
system.caches.L1Cache_Controller.Load         8794624      0.00%      0.00% (Unspecified)
system.caches.L1Cache_Controller.Ifetch       8321354      0.00%      0.00% (Unspecified)
system.caches.L1Cache_Controller.Store       10958232      0.00%      0.00% (Unspecified)
system.caches.L1Cache_Controller.Data          969933      0.00%      0.00% (Unspecified)
system.caches.L1Cache_Controller.Replacement       969902      0.00%      0.00% (Unspecified)
system.caches.L1Cache_Controller.Writeback_Ack       969901      0.00%      0.00% (Unspecified)
system.caches.L1Cache_Controller.I.Load        393629      0.00%      0.00% (Unspecified)
system.caches.L1Cache_Controller.I.Ifetch       406621      0.00%      0.00% (Unspecified)
system.caches.L1Cache_Controller.I.Store       169684      0.00%      0.00% (Unspecified)
system.caches.L1Cache_Controller.M.Load       8400995      0.00%      0.00% (Unspecified)
system.caches.L1Cache_Controller.M.Ifetch      7914733      0.00%      0.00% (Unspecified)
system.caches.L1Cache_Controller.M.Store     10788548      0.00%      0.00% (Unspecified)
system.caches.L1Cache_Controller.M.Replacement       969902      0.00%      0.00% (Unspecified)
system.caches.L1Cache_Controller.MI.Writeback_Ack       969901      0.00%      0.00% (Unspecified)
system.caches.L1Cache_Controller.IS.Data       800249      0.00%      0.00% (Unspecified)
system.caches.L1Cache_Controller.IM.Data       169684      0.00%      0.00% (Unspecified)
system.caches.Directory_Controller.GETX        969933      0.00%      0.00% (Unspecified)
system.caches.Directory_Controller.PUTX        969901      0.00%      0.00% (Unspecified)
system.caches.Directory_Controller.Memory_Data       969933      0.00%      0.00% (Unspecified)
system.caches.Directory_Controller.Memory_Ack       969901      0.00%      0.00% (Unspecified)
system.caches.Directory_Controller.I.GETX       969933      0.00%      0.00% (Unspecified)
system.caches.Directory_Controller.M.PUTX       969901      0.00%      0.00% (Unspecified)
system.caches.Directory_Controller.IM.Memory_Data       969933      0.00%      0.00% (Unspecified)
system.caches.Directory_Controller.MI.Memory_Ack       969901      0.00%      0.00% (Unspecified)
system.caches.MachineType.Directory.miss_mach_latency_hist_seqr::bucket_size           64                       (Unspecified)
system.caches.MachineType.Directory.miss_mach_latency_hist_seqr::max_bucket          639                       (Unspecified)
system.caches.MachineType.Directory.miss_mach_latency_hist_seqr::samples       969933                       (Unspecified)
system.caches.MachineType.Directory.miss_mach_latency_hist_seqr::mean    48.103450                       (Unspecified)
system.caches.MachineType.Directory.miss_mach_latency_hist_seqr::gmean    41.034900                       (Unspecified)
system.caches.MachineType.Directory.miss_mach_latency_hist_seqr::stdev    36.437918                       (Unspecified)
system.caches.MachineType.Directory.miss_mach_latency_hist_seqr |      817760     84.31%     84.31% |      108846     11.22%     95.53% |       31672      3.27%     98.80% |        7560      0.78%     99.58% |        2326      0.24%     99.82% |        1282      0.13%     99.95% |         270      0.03%     99.98% |         179      0.02%    100.00% |          38      0.00%    100.00% |           0      0.00%    100.00% (Unspecified)
system.caches.MachineType.Directory.miss_mach_latency_hist_seqr::total       969933                       (Unspecified)
system.caches.MachineType.Directory.miss_latency_hist_seqr.issue_to_initial_request::bucket_size            1                       (Unspecified)
system.caches.MachineType.Directory.miss_latency_hist_seqr.issue_to_initial_request::max_bucket            9                       (Unspecified)
system.caches.MachineType.Directory.miss_latency_hist_seqr.issue_to_initial_request::samples            1                       (Unspecified)
system.caches.MachineType.Directory.miss_latency_hist_seqr.issue_to_initial_request::stdev          nan                       (Unspecified)
system.caches.MachineType.Directory.miss_latency_hist_seqr.issue_to_initial_request |           1    100.00%    100.00% |           0      0.00%    100.00% |           0      0.00%    100.00% |           0      0.00%    100.00% |           0      0.00%    100.00% |           0      0.00%    100.00% |           0      0.00%    100.00% |           0      0.00%    100.00% |           0      0.00%    100.00% |           0      0.00%    100.00% (Unspecified)
system.caches.MachineType.Directory.miss_latency_hist_seqr.issue_to_initial_request::total            1                       (Unspecified)
system.caches.MachineType.Directory.miss_latency_hist_seqr.initial_to_forward::bucket_size            1                       (Unspecified)
system.caches.MachineType.Directory.miss_latency_hist_seqr.initial_to_forward::max_bucket            9                       (Unspecified)
system.caches.MachineType.Directory.miss_latency_hist_seqr.initial_to_forward::samples            1                       (Unspecified)
system.caches.MachineType.Directory.miss_latency_hist_seqr.initial_to_forward::stdev          nan                       (Unspecified)
system.caches.MachineType.Directory.miss_latency_hist_seqr.initial_to_forward |           1    100.00%    100.00% |           0      0.00%    100.00% |           0      0.00%    100.00% |           0      0.00%    100.00% |           0      0.00%    100.00% |           0      0.00%    100.00% |           0      0.00%    100.00% |           0      0.00%    100.00% |           0      0.00%    100.00% |           0      0.00%    100.00% (Unspecified)
system.caches.MachineType.Directory.miss_latency_hist_seqr.initial_to_forward::total            1                       (Unspecified)
system.caches.MachineType.Directory.miss_latency_hist_seqr.forward_to_first_response::bucket_size            1                       (Unspecified)
system.caches.MachineType.Directory.miss_latency_hist_seqr.forward_to_first_response::max_bucket            9                       (Unspecified)
system.caches.MachineType.Directory.miss_latency_hist_seqr.forward_to_first_response::samples            1                       (Unspecified)
system.caches.MachineType.Directory.miss_latency_hist_seqr.forward_to_first_response::stdev          nan                       (Unspecified)
system.caches.MachineType.Directory.miss_latency_hist_seqr.forward_to_first_response |           1    100.00%    100.00% |           0      0.00%    100.00% |           0      0.00%    100.00% |           0      0.00%    100.00% |           0      0.00%    100.00% |           0      0.00%    100.00% |           0      0.00%    100.00% |           0      0.00%    100.00% |           0      0.00%    100.00% |           0      0.00%    100.00% (Unspecified)
system.caches.MachineType.Directory.miss_latency_hist_seqr.forward_to_first_response::total            1                       (Unspecified)
system.caches.MachineType.Directory.miss_latency_hist_seqr.first_response_to_completion::bucket_size            8                       (Unspecified)
system.caches.MachineType.Directory.miss_latency_hist_seqr.first_response_to_completion::max_bucket           79                       (Unspecified)
system.caches.MachineType.Directory.miss_latency_hist_seqr.first_response_to_completion::samples            1                       (Unspecified)
system.caches.MachineType.Directory.miss_latency_hist_seqr.first_response_to_completion::mean           73                       (Unspecified)
system.caches.MachineType.Directory.miss_latency_hist_seqr.first_response_to_completion::gmean    73.000000                       (Unspecified)
system.caches.MachineType.Directory.miss_latency_hist_seqr.first_response_to_completion::stdev          nan                       (Unspecified)
system.caches.MachineType.Directory.miss_latency_hist_seqr.first_response_to_completion |           0      0.00%      0.00% |           0      0.00%      0.00% |           0      0.00%      0.00% |           0      0.00%      0.00% |           0      0.00%      0.00% |           0      0.00%      0.00% |           0      0.00%      0.00% |           0      0.00%      0.00% |           0      0.00%      0.00% |           1    100.00%    100.00% (Unspecified)
system.caches.MachineType.Directory.miss_latency_hist_seqr.first_response_to_completion::total            1                       (Unspecified)
system.caches.MachineType.Directory.incomplete_times_seqr       969932                       (Unspecified)
system.caches.RequestType.LD.latency_hist_seqr::bucket_size           64                       (Unspecified)
system.caches.RequestType.LD.latency_hist_seqr::max_bucket          639                       (Unspecified)
system.caches.RequestType.LD.latency_hist_seqr::samples      8794624                       (Unspecified)
system.caches.RequestType.LD.latency_hist_seqr::mean     3.560072                       (Unspecified)
system.caches.RequestType.LD.latency_hist_seqr::gmean     1.201264                       (Unspecified)
system.caches.RequestType.LD.latency_hist_seqr::stdev    14.515328                       (Unspecified)
system.caches.RequestType.LD.latency_hist_seqr |     8709990     99.04%     99.04% |       58719      0.67%     99.71% |       17827      0.20%     99.91% |        5714      0.06%     99.97% |        1390      0.02%     99.99% |         682      0.01%    100.00% |         157      0.00%    100.00% |         113      0.00%    100.00% |          32      0.00%    100.00% |           0      0.00%    100.00% (Unspecified)
system.caches.RequestType.LD.latency_hist_seqr::total      8794624                       (Unspecified)
system.caches.RequestType.LD.hit_latency_hist_seqr::bucket_size           64                       (Unspecified)
system.caches.RequestType.LD.hit_latency_hist_seqr::max_bucket          639                       (Unspecified)
system.caches.RequestType.LD.hit_latency_hist_seqr::samples      8400995                       (Unspecified)
system.caches.RequestType.LD.hit_latency_hist_seqr::mean     1.087199                       (Unspecified)
system.caches.RequestType.LD.hit_latency_hist_seqr::gmean     1.010731                       (Unspecified)
system.caches.RequestType.LD.hit_latency_hist_seqr::stdev     2.196746                       (Unspecified)
system.caches.RequestType.LD.hit_latency_hist_seqr |     8399429     99.98%     99.98% |        1046      0.01%     99.99% |         392      0.00%    100.00% |          65      0.00%    100.00% |          44      0.00%    100.00% |          10      0.00%    100.00% |           8      0.00%    100.00% |           1      0.00%    100.00% |           0      0.00%    100.00% |           0      0.00%    100.00% (Unspecified)
system.caches.RequestType.LD.hit_latency_hist_seqr::total      8400995                       (Unspecified)
system.caches.RequestType.LD.miss_latency_hist_seqr::bucket_size           64                       (Unspecified)
system.caches.RequestType.LD.miss_latency_hist_seqr::max_bucket          639                       (Unspecified)
system.caches.RequestType.LD.miss_latency_hist_seqr::samples       393629                       (Unspecified)
system.caches.RequestType.LD.miss_latency_hist_seqr::mean    56.337180                       (Unspecified)
system.caches.RequestType.LD.miss_latency_hist_seqr::gmean    47.905394                       (Unspecified)
system.caches.RequestType.LD.miss_latency_hist_seqr::stdev    41.091455                       (Unspecified)
system.caches.RequestType.LD.miss_latency_hist_seqr |      310561     78.90%     78.90% |       57673     14.65%     93.55% |       17435      4.43%     97.98% |        5649      1.44%     99.41% |        1346      0.34%     99.75% |         672      0.17%     99.93% |         149      0.04%     99.96% |         112      0.03%     99.99% |          32      0.01%    100.00% |           0      0.00%    100.00% (Unspecified)
system.caches.RequestType.LD.miss_latency_hist_seqr::total       393629                       (Unspecified)
system.caches.RequestType.ST.latency_hist_seqr::bucket_size           64                       (Unspecified)
system.caches.RequestType.ST.latency_hist_seqr::max_bucket          639                       (Unspecified)
system.caches.RequestType.ST.latency_hist_seqr::samples     10485006                       (Unspecified)
system.caches.RequestType.ST.latency_hist_seqr::mean     1.802644                       (Unspecified)
system.caches.RequestType.ST.latency_hist_seqr::gmean     1.091236                       (Unspecified)
system.caches.RequestType.ST.latency_hist_seqr::stdev     6.935756                       (Unspecified)
system.caches.RequestType.ST.latency_hist_seqr |    10451731     99.68%     99.68% |       28212      0.27%     99.95% |        3821      0.04%     99.99% |         662      0.01%     99.99% |         365      0.00%    100.00% |         168      0.00%    100.00% |          31      0.00%    100.00% |          14      0.00%    100.00% |           2      0.00%    100.00% |           0      0.00%    100.00% (Unspecified)
system.caches.RequestType.ST.latency_hist_seqr::total     10485006                       (Unspecified)
system.caches.RequestType.ST.hit_latency_hist_seqr::bucket_size           64                       (Unspecified)
system.caches.RequestType.ST.hit_latency_hist_seqr::max_bucket          639                       (Unspecified)
system.caches.RequestType.ST.hit_latency_hist_seqr::samples     10318335                       (Unspecified)
system.caches.RequestType.ST.hit_latency_hist_seqr::mean     1.136185                       (Unspecified)
system.caches.RequestType.ST.hit_latency_hist_seqr::gmean     1.030917                       (Unspecified)
system.caches.RequestType.ST.hit_latency_hist_seqr::stdev     1.932337                       (Unspecified)
system.caches.RequestType.ST.hit_latency_hist_seqr |    10317320     99.99%     99.99% |         735      0.01%    100.00% |         205      0.00%    100.00% |          35      0.00%    100.00% |          24      0.00%    100.00% |          10      0.00%    100.00% |           4      0.00%    100.00% |           2      0.00%    100.00% |           0      0.00%    100.00% |           0      0.00%    100.00% (Unspecified)
system.caches.RequestType.ST.hit_latency_hist_seqr::total     10318335                       (Unspecified)
system.caches.RequestType.ST.miss_latency_hist_seqr::bucket_size           64                       (Unspecified)
system.caches.RequestType.ST.miss_latency_hist_seqr::max_bucket          639                       (Unspecified)
system.caches.RequestType.ST.miss_latency_hist_seqr::samples       166671                       (Unspecified)
system.caches.RequestType.ST.miss_latency_hist_seqr::mean    43.062032                       (Unspecified)
system.caches.RequestType.ST.miss_latency_hist_seqr::gmean    36.876055                       (Unspecified)
system.caches.RequestType.ST.miss_latency_hist_seqr::stdev    32.637410                       (Unspecified)
system.caches.RequestType.ST.miss_latency_hist_seqr |      134411     80.64%     80.64% |       27477     16.49%     97.13% |        3616      2.17%     99.30% |         627      0.38%     99.68% |         341      0.20%     99.88% |         158      0.09%     99.98% |          27      0.02%     99.99% |          12      0.01%    100.00% |           2      0.00%    100.00% |           0      0.00%    100.00% (Unspecified)
system.caches.RequestType.ST.miss_latency_hist_seqr::total       166671                       (Unspecified)
system.caches.RequestType.IFETCH.latency_hist_seqr::bucket_size           64                       (Unspecified)
system.caches.RequestType.IFETCH.latency_hist_seqr::max_bucket          639                       (Unspecified)
system.caches.RequestType.IFETCH.latency_hist_seqr::samples      8321353                       (Unspecified)
system.caches.RequestType.IFETCH.latency_hist_seqr::mean     3.031165                       (Unspecified)
system.caches.RequestType.IFETCH.latency_hist_seqr::gmean     1.196177                       (Unspecified)
system.caches.RequestType.IFETCH.latency_hist_seqr::stdev    11.257134                       (Unspecified)
system.caches.RequestType.IFETCH.latency_hist_seqr |     8285796     99.57%     99.57% |       22527      0.27%     99.84% |       10500      0.13%     99.97% |        1309      0.02%     99.99% |         631      0.01%     99.99% |         442      0.01%    100.00% |          91      0.00%    100.00% |          53      0.00%    100.00% |           4      0.00%    100.00% |           0      0.00%    100.00% (Unspecified)
system.caches.RequestType.IFETCH.latency_hist_seqr::total      8321353                       (Unspecified)
system.caches.RequestType.IFETCH.hit_latency_hist_seqr::bucket_size           64                       (Unspecified)
system.caches.RequestType.IFETCH.hit_latency_hist_seqr::max_bucket          639                       (Unspecified)
system.caches.RequestType.IFETCH.hit_latency_hist_seqr::samples      7914733                       (Unspecified)
system.caches.RequestType.IFETCH.hit_latency_hist_seqr::mean     1.029542                       (Unspecified)
system.caches.RequestType.IFETCH.hit_latency_hist_seqr::gmean     1.003133                       (Unspecified)
system.caches.RequestType.IFETCH.hit_latency_hist_seqr::stdev     1.385108                       (Unspecified)
system.caches.RequestType.IFETCH.hit_latency_hist_seqr |     7914134     99.99%     99.99% |         419      0.01%    100.00% |         115      0.00%    100.00% |          47      0.00%    100.00% |          14      0.00%    100.00% |           3      0.00%    100.00% |           0      0.00%    100.00% |           1      0.00%    100.00% |           0      0.00%    100.00% |           0      0.00%    100.00% (Unspecified)
system.caches.RequestType.IFETCH.hit_latency_hist_seqr::total      7914733                       (Unspecified)
system.caches.RequestType.IFETCH.miss_latency_hist_seqr::bucket_size           64                       (Unspecified)
system.caches.RequestType.IFETCH.miss_latency_hist_seqr::max_bucket          639                       (Unspecified)
system.caches.RequestType.IFETCH.miss_latency_hist_seqr::samples       406620                       (Unspecified)
system.caches.RequestType.IFETCH.miss_latency_hist_seqr::mean    41.992135                       (Unspecified)
system.caches.RequestType.IFETCH.miss_latency_hist_seqr::gmean    36.780297                       (Unspecified)
system.caches.RequestType.IFETCH.miss_latency_hist_seqr::stdev    30.984908                       (Unspecified)
system.caches.RequestType.IFETCH.miss_latency_hist_seqr |      371662     91.40%     91.40% |       22108      5.44%     96.84% |       10385      2.55%     99.39% |        1262      0.31%     99.70% |         617      0.15%     99.86% |         439      0.11%     99.96% |          91      0.02%     99.99% |          52      0.01%    100.00% |           4      0.00%    100.00% |           0      0.00%    100.00% (Unspecified)
system.caches.RequestType.IFETCH.miss_latency_hist_seqr::total       406620                       (Unspecified)
system.caches.RequestType.RMW_Read.latency_hist_seqr::bucket_size           64                       (Unspecified)
system.caches.RequestType.RMW_Read.latency_hist_seqr::max_bucket          639                       (Unspecified)
system.caches.RequestType.RMW_Read.latency_hist_seqr::samples       473226                       (Unspecified)
system.caches.RequestType.RMW_Read.latency_hist_seqr::mean     1.819600                       (Unspecified)
system.caches.RequestType.RMW_Read.latency_hist_seqr::gmean     1.240978                       (Unspecified)
system.caches.RequestType.RMW_Read.latency_hist_seqr::stdev     7.445555                       (Unspecified)
system.caches.RequestType.RMW_Read.latency_hist_seqr |      471210     99.57%     99.57% |        1672      0.35%     99.93% |         274      0.06%     99.99% |          27      0.01%     99.99% |          24      0.01%    100.00% |          13      0.00%    100.00% |           3      0.00%    100.00% |           3      0.00%    100.00% |           0      0.00%    100.00% |           0      0.00%    100.00% (Unspecified)
system.caches.RequestType.RMW_Read.latency_hist_seqr::total       473226                       (Unspecified)
system.caches.RequestType.RMW_Read.hit_latency_hist_seqr::bucket_size           32                       (Unspecified)
system.caches.RequestType.RMW_Read.hit_latency_hist_seqr::max_bucket          319                       (Unspecified)
system.caches.RequestType.RMW_Read.hit_latency_hist_seqr::samples       470213                       (Unspecified)
system.caches.RequestType.RMW_Read.hit_latency_hist_seqr::mean     1.343944                       (Unspecified)
system.caches.RequestType.RMW_Read.hit_latency_hist_seqr::gmean     1.209902                       (Unspecified)
system.caches.RequestType.RMW_Read.hit_latency_hist_seqr::stdev     2.417493                       (Unspecified)
system.caches.RequestType.RMW_Read.hit_latency_hist_seqr |      469876     99.93%     99.93% |         208      0.04%     99.97% |          61      0.01%     99.99% |          23      0.00%     99.99% |          13      0.00%     99.99% |          25      0.01%    100.00% |           5      0.00%    100.00% |           0      0.00%    100.00% |           1      0.00%    100.00% |           1      0.00%    100.00% (Unspecified)
system.caches.RequestType.RMW_Read.hit_latency_hist_seqr::total       470213                       (Unspecified)
system.caches.RequestType.RMW_Read.miss_latency_hist_seqr::bucket_size           64                       (Unspecified)
system.caches.RequestType.RMW_Read.miss_latency_hist_seqr::max_bucket          639                       (Unspecified)
system.caches.RequestType.RMW_Read.miss_latency_hist_seqr::samples         3013                       (Unspecified)
system.caches.RequestType.RMW_Read.miss_latency_hist_seqr::mean    76.051112                       (Unspecified)
system.caches.RequestType.RMW_Read.miss_latency_hist_seqr::gmean    64.951324                       (Unspecified)
system.caches.RequestType.RMW_Read.miss_latency_hist_seqr::stdev    47.433528                       (Unspecified)
system.caches.RequestType.RMW_Read.miss_latency_hist_seqr |        1126     37.37%     37.37% |        1588     52.70%     90.08% |         236      7.83%     97.91% |          22      0.73%     98.64% |          22      0.73%     99.37% |          13      0.43%     99.80% |           3      0.10%     99.90% |           3      0.10%    100.00% |           0      0.00%    100.00% |           0      0.00%    100.00% (Unspecified)
system.caches.RequestType.RMW_Read.miss_latency_hist_seqr::total         3013                       (Unspecified)
system.caches.RequestTypeMachineType.LD.Directory.miss_type_mach_latency_hist_seqr::bucket_size           64                       (Unspecified)
system.caches.RequestTypeMachineType.LD.Directory.miss_type_mach_latency_hist_seqr::max_bucket          639                       (Unspecified)
system.caches.RequestTypeMachineType.LD.Directory.miss_type_mach_latency_hist_seqr::samples       393629                       (Unspecified)
system.caches.RequestTypeMachineType.LD.Directory.miss_type_mach_latency_hist_seqr::mean    56.337180                       (Unspecified)
system.caches.RequestTypeMachineType.LD.Directory.miss_type_mach_latency_hist_seqr::gmean    47.905394                       (Unspecified)
system.caches.RequestTypeMachineType.LD.Directory.miss_type_mach_latency_hist_seqr::stdev    41.091455                       (Unspecified)
system.caches.RequestTypeMachineType.LD.Directory.miss_type_mach_latency_hist_seqr |      310561     78.90%     78.90% |       57673     14.65%     93.55% |       17435      4.43%     97.98% |        5649      1.44%     99.41% |        1346      0.34%     99.75% |         672      0.17%     99.93% |         149      0.04%     99.96% |         112      0.03%     99.99% |          32      0.01%    100.00% |           0      0.00%    100.00% (Unspecified)
system.caches.RequestTypeMachineType.LD.Directory.miss_type_mach_latency_hist_seqr::total       393629                       (Unspecified)
system.caches.RequestTypeMachineType.ST.Directory.miss_type_mach_latency_hist_seqr::bucket_size           64                       (Unspecified)
system.caches.RequestTypeMachineType.ST.Directory.miss_type_mach_latency_hist_seqr::max_bucket          639                       (Unspecified)
system.caches.RequestTypeMachineType.ST.Directory.miss_type_mach_latency_hist_seqr::samples       166671                       (Unspecified)
system.caches.RequestTypeMachineType.ST.Directory.miss_type_mach_latency_hist_seqr::mean    43.062032                       (Unspecified)
system.caches.RequestTypeMachineType.ST.Directory.miss_type_mach_latency_hist_seqr::gmean    36.876055                       (Unspecified)
system.caches.RequestTypeMachineType.ST.Directory.miss_type_mach_latency_hist_seqr::stdev    32.637410                       (Unspecified)
system.caches.RequestTypeMachineType.ST.Directory.miss_type_mach_latency_hist_seqr |      134411     80.64%     80.64% |       27477     16.49%     97.13% |        3616      2.17%     99.30% |         627      0.38%     99.68% |         341      0.20%     99.88% |         158      0.09%     99.98% |          27      0.02%     99.99% |          12      0.01%    100.00% |           2      0.00%    100.00% |           0      0.00%    100.00% (Unspecified)
system.caches.RequestTypeMachineType.ST.Directory.miss_type_mach_latency_hist_seqr::total       166671                       (Unspecified)
system.caches.RequestTypeMachineType.IFETCH.Directory.miss_type_mach_latency_hist_seqr::bucket_size           64                       (Unspecified)
system.caches.RequestTypeMachineType.IFETCH.Directory.miss_type_mach_latency_hist_seqr::max_bucket          639                       (Unspecified)
system.caches.RequestTypeMachineType.IFETCH.Directory.miss_type_mach_latency_hist_seqr::samples       406620                       (Unspecified)
system.caches.RequestTypeMachineType.IFETCH.Directory.miss_type_mach_latency_hist_seqr::mean    41.992135                       (Unspecified)
system.caches.RequestTypeMachineType.IFETCH.Directory.miss_type_mach_latency_hist_seqr::gmean    36.780297                       (Unspecified)
system.caches.RequestTypeMachineType.IFETCH.Directory.miss_type_mach_latency_hist_seqr::stdev    30.984908                       (Unspecified)
system.caches.RequestTypeMachineType.IFETCH.Directory.miss_type_mach_latency_hist_seqr |      371662     91.40%     91.40% |       22108      5.44%     96.84% |       10385      2.55%     99.39% |        1262      0.31%     99.70% |         617      0.15%     99.86% |         439      0.11%     99.96% |          91      0.02%     99.99% |          52      0.01%    100.00% |           4      0.00%    100.00% |           0      0.00%    100.00% (Unspecified)
system.caches.RequestTypeMachineType.IFETCH.Directory.miss_type_mach_latency_hist_seqr::total       406620                       (Unspecified)
system.caches.RequestTypeMachineType.RMW_Read.Directory.miss_type_mach_latency_hist_seqr::bucket_size           64                       (Unspecified)
system.caches.RequestTypeMachineType.RMW_Read.Directory.miss_type_mach_latency_hist_seqr::max_bucket          639                       (Unspecified)
system.caches.RequestTypeMachineType.RMW_Read.Directory.miss_type_mach_latency_hist_seqr::samples         3013                       (Unspecified)
system.caches.RequestTypeMachineType.RMW_Read.Directory.miss_type_mach_latency_hist_seqr::mean    76.051112                       (Unspecified)
system.caches.RequestTypeMachineType.RMW_Read.Directory.miss_type_mach_latency_hist_seqr::gmean    64.951324                       (Unspecified)
system.caches.RequestTypeMachineType.RMW_Read.Directory.miss_type_mach_latency_hist_seqr::stdev    47.433528                       (Unspecified)
system.caches.RequestTypeMachineType.RMW_Read.Directory.miss_type_mach_latency_hist_seqr |        1126     37.37%     37.37% |        1588     52.70%     90.08% |         236      7.83%     97.91% |          22      0.73%     98.64% |          22      0.73%     99.37% |          13      0.43%     99.80% |           3      0.10%     99.90% |           3      0.10%    100.00% |           0      0.00%    100.00% |           0      0.00%    100.00% (Unspecified)
system.caches.RequestTypeMachineType.RMW_Read.Directory.miss_type_mach_latency_hist_seqr::total         3013                       (Unspecified)
system.caches.controllers0.delayHistogram::samples      1939834                       # delay_histogram (Unspecified)
system.caches.controllers0.delayHistogram::mean     0.345176                       # delay_histogram (Unspecified)
system.caches.controllers0.delayHistogram::stdev     1.470776                       # delay_histogram (Unspecified)
system.caches.controllers0.delayHistogram::0-15      1938392     99.93%     99.93% # delay_histogram (Unspecified)
system.caches.controllers0.delayHistogram::16-31         1328      0.07%     99.99% # delay_histogram (Unspecified)
system.caches.controllers0.delayHistogram::32-47           97      0.01%    100.00% # delay_histogram (Unspecified)
system.caches.controllers0.delayHistogram::48-63           15      0.00%    100.00% # delay_histogram (Unspecified)
system.caches.controllers0.delayHistogram::64-79            1      0.00%    100.00% # delay_histogram (Unspecified)
system.caches.controllers0.delayHistogram::80-95            1      0.00%    100.00% # delay_histogram (Unspecified)
system.caches.controllers0.delayHistogram::total      1939834                       # delay_histogram (Unspecified)
system.caches.controllers0.cacheMemory.m_demand_hits     27104276                       # Number of cache demand hits (Unspecified)
system.caches.controllers0.cacheMemory.m_demand_misses       969934                       # Number of cache demand misses (Unspecified)
system.caches.controllers0.cacheMemory.m_demand_accesses     28074210                       # Number of cache demand accesses (Unspecified)
system.caches.controllers0.forwardToCache.m_buf_msgs     0.013137                       # Average number of messages in buffer (Unspecified)
system.caches.controllers0.forwardToCache.m_stall_time  5248.330048                       # Average number of cycles messages are stalled in this MB (Unspecified)
system.caches.controllers0.mandatoryQueue.m_buf_msgs     0.443110                       # Average number of messages in buffer (Unspecified)
system.caches.controllers0.mandatoryQueue.m_stall_time  1152.066939                       # Average number of cycles messages are stalled in this MB (Unspecified)
system.caches.controllers0.power_state.pwrStateResidencyTicks::UNDEFINED  73829197000                       # Cumulative time (in ticks) in various power states (Tick)
system.caches.controllers0.requestFromCache.m_buf_msgs     0.052549                       # Average number of messages in buffer (Unspecified)
system.caches.controllers0.requestFromCache.m_stall_time  1999.999919                       # Average number of cycles messages are stalled in this MB (Unspecified)
system.caches.controllers0.responseToCache.m_buf_msgs     0.013138                       # Average number of messages in buffer (Unspecified)
system.caches.controllers0.responseToCache.m_stall_time  5017.732510                       # Average number of cycles messages are stalled in this MB (Unspecified)
system.caches.controllers1.forwardFromDir.m_buf_msgs     0.013137                       # Average number of messages in buffer (Unspecified)
system.caches.controllers1.forwardFromDir.m_stall_time   999.988284                       # Average number of cycles messages are stalled in this MB (Unspecified)
system.caches.controllers1.power_state.pwrStateResidencyTicks::UNDEFINED  73829197000                       # Cumulative time (in ticks) in various power states (Tick)
system.caches.controllers1.requestToDir.m_buf_msgs     0.026275                       # Average number of messages in buffer (Unspecified)
system.caches.controllers1.requestToDir.m_stall_time  9779.721185                       # Average number of cycles messages are stalled in this MB (Unspecified)
system.caches.controllers1.requestToMemory.m_buf_msgs     0.026311                       # Average number of messages in buffer (Unspecified)
system.caches.controllers1.requestToMemory.m_stall_time  1000.215078                       # Average number of cycles messages are stalled in this MB (Unspecified)
system.caches.controllers1.responseFromDir.m_buf_msgs     0.013138                       # Average number of messages in buffer (Unspecified)
system.caches.controllers1.responseFromDir.m_stall_time   999.999065                       # Average number of cycles messages are stalled in this MB (Unspecified)
system.caches.controllers1.responseFromMemory.m_buf_msgs     0.027886                       # Average number of messages in buffer (Unspecified)
system.caches.controllers1.responseFromMemory.m_stall_time   999.999079                       # Average number of cycles messages are stalled in this MB (Unspecified)
system.caches.network.msg_count.Control       1939866                       (Unspecified)
system.caches.network.msg_byte.Control       15518928                       (Unspecified)
system.caches.network.msg_count.Data          1939803                       (Unspecified)
system.caches.network.msg_byte.Data         139665816                       (Unspecified)
system.caches.network.msg_count.Response_Data      1939866                       (Unspecified)
system.caches.network.msg_byte.Response_Data    139670352                       (Unspecified)
system.caches.network.msg_count.Writeback_Control      1939802                       (Unspecified)
system.caches.network.msg_byte.Writeback_Control     15518416                       (Unspecified)
system.caches.network.int_link_buffers2.m_buf_msgs     0.026275                       # Average number of messages in buffer (Unspecified)
system.caches.network.int_link_buffers2.m_stall_time  7779.721592                       # Average number of cycles messages are stalled in this MB (Unspecified)
system.caches.network.int_link_buffers8.m_buf_msgs     0.013137                       # Average number of messages in buffer (Unspecified)
system.caches.network.int_link_buffers8.m_stall_time  3248.353670                       # Average number of cycles messages are stalled in this MB (Unspecified)
system.caches.network.int_link_buffers9.m_buf_msgs     0.013138                       # Average number of messages in buffer (Unspecified)
system.caches.network.int_link_buffers9.m_stall_time  3017.734569                       # Average number of cycles messages are stalled in this MB (Unspecified)
system.caches.network.power_state.pwrStateResidencyTicks::UNDEFINED  73829197000                       # Cumulative time (in ticks) in various power states (Tick)
system.caches.network.routers0.percent_links_utilized     6.568655                       (Unspecified)
system.caches.network.routers0.msg_count.Control::2       969933                       (Unspecified)
system.caches.network.routers0.msg_bytes.Control::2      7759464                       (Unspecified)
system.caches.network.routers0.msg_count.Data::2       969902                       (Unspecified)
system.caches.network.routers0.msg_bytes.Data::2     69832944                       (Unspecified)
system.caches.network.routers0.msg_count.Response_Data::4       969933                       (Unspecified)
system.caches.network.routers0.msg_bytes.Response_Data::4     69835176                       (Unspecified)
system.caches.network.routers0.msg_count.Writeback_Control::3       969901                       (Unspecified)
system.caches.network.routers0.msg_bytes.Writeback_Control::3      7759208                       (Unspecified)
system.caches.network.routers0.port_buffers3.m_buf_msgs     0.013137                       # Average number of messages in buffer (Unspecified)
system.caches.network.routers0.port_buffers3.m_stall_time  4248.341872                       # Average number of cycles messages are stalled in this MB (Unspecified)
system.caches.network.routers0.port_buffers4.m_buf_msgs     0.013138                       # Average number of messages in buffer (Unspecified)
system.caches.network.routers0.port_buffers4.m_stall_time  4017.733553                       # Average number of cycles messages are stalled in this MB (Unspecified)
system.caches.network.routers0.port_buffers7.m_buf_msgs     0.088937                       # Average number of messages in buffer (Unspecified)
system.caches.network.routers0.port_buffers7.m_stall_time  6779.721754                       # Average number of cycles messages are stalled in this MB (Unspecified)
system.caches.network.routers0.power_state.pwrStateResidencyTicks::UNDEFINED  73829197000                       # Cumulative time (in ticks) in various power states (Tick)
system.caches.network.routers0.throttle00.link_utilization     6.568741                       (Unspecified)
system.caches.network.routers0.throttle00.msg_count.Response_Data::4       969933                       (Unspecified)
system.caches.network.routers0.throttle00.msg_bytes.Response_Data::4     69835176                       (Unspecified)
system.caches.network.routers0.throttle00.msg_count.Writeback_Control::3       969901                       (Unspecified)
system.caches.network.routers0.throttle00.msg_bytes.Writeback_Control::3      7759208                       (Unspecified)
system.caches.network.routers0.throttle01.link_utilization     6.568569                       (Unspecified)
system.caches.network.routers0.throttle01.msg_count.Control::2       969933                       (Unspecified)
system.caches.network.routers0.throttle01.msg_bytes.Control::2      7759464                       (Unspecified)
system.caches.network.routers0.throttle01.msg_count.Data::2       969902                       (Unspecified)
system.caches.network.routers0.throttle01.msg_bytes.Data::2     69832944                       (Unspecified)
system.caches.network.routers1.percent_links_utilized     6.568655                       (Unspecified)
system.caches.network.routers1.msg_count.Control::2       969933                       (Unspecified)
system.caches.network.routers1.msg_bytes.Control::2      7759464                       (Unspecified)
system.caches.network.routers1.msg_count.Data::2       969901                       (Unspecified)
system.caches.network.routers1.msg_bytes.Data::2     69832872                       (Unspecified)
system.caches.network.routers1.msg_count.Response_Data::4       969933                       (Unspecified)
system.caches.network.routers1.msg_bytes.Response_Data::4     69835176                       (Unspecified)
system.caches.network.routers1.msg_count.Writeback_Control::3       969901                       (Unspecified)
system.caches.network.routers1.msg_bytes.Writeback_Control::3      7759208                       (Unspecified)
system.caches.network.routers1.port_buffers2.m_buf_msgs     0.026275                       # Average number of messages in buffer (Unspecified)
system.caches.network.routers1.port_buffers2.m_stall_time  8779.721402                       # Average number of cycles messages are stalled in this MB (Unspecified)
system.caches.network.routers1.port_buffers6.m_buf_msgs     0.017466                       # Average number of messages in buffer (Unspecified)
system.caches.network.routers1.port_buffers6.m_stall_time  2248.365440                       # Average number of cycles messages are stalled in this MB (Unspecified)
system.caches.network.routers1.port_buffers7.m_buf_msgs     0.013343                       # Average number of messages in buffer (Unspecified)
system.caches.network.routers1.port_buffers7.m_stall_time  2017.735558                       # Average number of cycles messages are stalled in this MB (Unspecified)
system.caches.network.routers1.power_state.pwrStateResidencyTicks::UNDEFINED  73829197000                       # Cumulative time (in ticks) in various power states (Tick)
system.caches.network.routers1.throttle00.link_utilization     6.568568                       (Unspecified)
system.caches.network.routers1.throttle00.msg_count.Control::2       969933                       (Unspecified)
system.caches.network.routers1.throttle00.msg_bytes.Control::2      7759464                       (Unspecified)
system.caches.network.routers1.throttle00.msg_count.Data::2       969901                       (Unspecified)
system.caches.network.routers1.throttle00.msg_bytes.Data::2     69832872                       (Unspecified)
system.caches.network.routers1.throttle01.link_utilization     6.568741                       (Unspecified)
system.caches.network.routers1.throttle01.msg_count.Response_Data::4       969933                       (Unspecified)
system.caches.network.routers1.throttle01.msg_bytes.Response_Data::4     69835176                       (Unspecified)
system.caches.network.routers1.throttle01.msg_count.Writeback_Control::3       969901                       (Unspecified)
system.caches.network.routers1.throttle01.msg_bytes.Writeback_Control::3      7759208                       (Unspecified)
system.caches.power_state.pwrStateResidencyTicks::UNDEFINED  73829197000                       # Cumulative time (in ticks) in various power states (Tick)
system.caches.sequencers.power_state.pwrStateResidencyTicks::UNDEFINED  73829197000                       # Cumulative time (in ticks) in various power states (Tick)
system.caches.sys_port_proxy.power_state.pwrStateResidencyTicks::UNDEFINED  73829197000                       # Cumulative time (in ticks) in various power states (Tick)
system.clk_domain.clock                          1000                       # Clock period in ticks (Tick)
system.clk_domain.voltage_domain.voltage            1                       # Voltage in Volts (Volt)
system.cpu.numCycles                         73829198                       # Number of cpu cycles simulated (Cycle)
system.cpu.numWorkItemsStarted                      0                       # Number of work items this cpu started (Count)
system.cpu.numWorkItemsCompleted                    0                       # Number of work items this cpu completed (Count)
system.cpu.instsAdded                        95965761                       # Number of instructions added to the IQ (excludes non-spec) (Count)
system.cpu.nonSpecInstsAdded                   918478                       # Number of non-speculative instructions added to the IQ (Count)
system.cpu.instsIssued                       92688706                       # Number of instructions issued (Count)
system.cpu.squashedInstsIssued                   1667                       # Number of squashed instructions issued (Count)
system.cpu.squashedInstsExamined             13682264                       # Number of squashed instructions iterated over during squash; mainly for profiling (Count)
system.cpu.squashedOperandsExamined          16241172                       # Number of squashed operands that are examined and possibly removed from graph (Count)
system.cpu.squashedNonSpecRemoved                 838                       # Number of squashed non-spec instructions that were removed (Count)
system.cpu.numIssuedDist::samples            69981019                       # Number of insts issued each cycle (Count)
system.cpu.numIssuedDist::mean               1.324484                       # Number of insts issued each cycle (Count)
system.cpu.numIssuedDist::stdev              1.841905                       # Number of insts issued each cycle (Count)
system.cpu.numIssuedDist::underflows                0      0.00%      0.00% # Number of insts issued each cycle (Count)
system.cpu.numIssuedDist::0                  36804582     52.59%     52.59% # Number of insts issued each cycle (Count)
system.cpu.numIssuedDist::1                  10662663     15.24%     67.83% # Number of insts issued each cycle (Count)
system.cpu.numIssuedDist::2                   6711622      9.59%     77.42% # Number of insts issued each cycle (Count)
system.cpu.numIssuedDist::3                   5291576      7.56%     84.98% # Number of insts issued each cycle (Count)
system.cpu.numIssuedDist::4                   3852845      5.51%     90.49% # Number of insts issued each cycle (Count)
system.cpu.numIssuedDist::5                   3742588      5.35%     95.83% # Number of insts issued each cycle (Count)
system.cpu.numIssuedDist::6                   2015747      2.88%     98.71% # Number of insts issued each cycle (Count)
system.cpu.numIssuedDist::7                    685899      0.98%     99.69% # Number of insts issued each cycle (Count)
system.cpu.numIssuedDist::8                    213497      0.31%    100.00% # Number of insts issued each cycle (Count)
system.cpu.numIssuedDist::overflows                 0      0.00%    100.00% # Number of insts issued each cycle (Count)
system.cpu.numIssuedDist::min_value                 0                       # Number of insts issued each cycle (Count)
system.cpu.numIssuedDist::max_value                 8                       # Number of insts issued each cycle (Count)
system.cpu.numIssuedDist::total              69981019                       # Number of insts issued each cycle (Count)
system.cpu.statFuBusy::No_OpClass                   0      0.00%      0.00% # attempts to use FU when none available (Count)
system.cpu.statFuBusy::IntAlu                   41792     18.03%     18.03% # attempts to use FU when none available (Count)
system.cpu.statFuBusy::IntMult                      0      0.00%     18.03% # attempts to use FU when none available (Count)
system.cpu.statFuBusy::IntDiv                       0      0.00%     18.03% # attempts to use FU when none available (Count)
system.cpu.statFuBusy::FloatAdd                     0      0.00%     18.03% # attempts to use FU when none available (Count)
system.cpu.statFuBusy::FloatCmp                     0      0.00%     18.03% # attempts to use FU when none available (Count)
system.cpu.statFuBusy::FloatCvt                     0      0.00%     18.03% # attempts to use FU when none available (Count)
system.cpu.statFuBusy::FloatMult                    0      0.00%     18.03% # attempts to use FU when none available (Count)
system.cpu.statFuBusy::FloatMultAcc                 0      0.00%     18.03% # attempts to use FU when none available (Count)
system.cpu.statFuBusy::FloatDiv                     0      0.00%     18.03% # attempts to use FU when none available (Count)
system.cpu.statFuBusy::FloatMisc                    0      0.00%     18.03% # attempts to use FU when none available (Count)
system.cpu.statFuBusy::FloatSqrt                    0      0.00%     18.03% # attempts to use FU when none available (Count)
system.cpu.statFuBusy::SimdAdd                      1      0.00%     18.03% # attempts to use FU when none available (Count)
system.cpu.statFuBusy::SimdAddAcc                   0      0.00%     18.03% # attempts to use FU when none available (Count)
system.cpu.statFuBusy::SimdAlu                     41      0.02%     18.05% # attempts to use FU when none available (Count)
system.cpu.statFuBusy::SimdCmp                      0      0.00%     18.05% # attempts to use FU when none available (Count)
system.cpu.statFuBusy::SimdCvt                    134      0.06%     18.11% # attempts to use FU when none available (Count)
system.cpu.statFuBusy::SimdMisc                     4      0.00%     18.11% # attempts to use FU when none available (Count)
system.cpu.statFuBusy::SimdMult                     0      0.00%     18.11% # attempts to use FU when none available (Count)
system.cpu.statFuBusy::SimdMultAcc                  0      0.00%     18.11% # attempts to use FU when none available (Count)
system.cpu.statFuBusy::SimdShift                   27      0.01%     18.12% # attempts to use FU when none available (Count)
system.cpu.statFuBusy::SimdShiftAcc                 0      0.00%     18.12% # attempts to use FU when none available (Count)
system.cpu.statFuBusy::SimdDiv                      0      0.00%     18.12% # attempts to use FU when none available (Count)
system.cpu.statFuBusy::SimdSqrt                     0      0.00%     18.12% # attempts to use FU when none available (Count)
system.cpu.statFuBusy::SimdFloatAdd                 0      0.00%     18.12% # attempts to use FU when none available (Count)
system.cpu.statFuBusy::SimdFloatAlu                 0      0.00%     18.12% # attempts to use FU when none available (Count)
system.cpu.statFuBusy::SimdFloatCmp                 0      0.00%     18.12% # attempts to use FU when none available (Count)
system.cpu.statFuBusy::SimdFloatCvt                 0      0.00%     18.12% # attempts to use FU when none available (Count)
system.cpu.statFuBusy::SimdFloatDiv                 0      0.00%     18.12% # attempts to use FU when none available (Count)
system.cpu.statFuBusy::SimdFloatMisc                0      0.00%     18.12% # attempts to use FU when none available (Count)
system.cpu.statFuBusy::SimdFloatMult                0      0.00%     18.12% # attempts to use FU when none available (Count)
system.cpu.statFuBusy::SimdFloatMultAcc             0      0.00%     18.12% # attempts to use FU when none available (Count)
system.cpu.statFuBusy::SimdFloatSqrt                0      0.00%     18.12% # attempts to use FU when none available (Count)
system.cpu.statFuBusy::SimdReduceAdd                0      0.00%     18.12% # attempts to use FU when none available (Count)
system.cpu.statFuBusy::SimdReduceAlu                0      0.00%     18.12% # attempts to use FU when none available (Count)
system.cpu.statFuBusy::SimdReduceCmp                0      0.00%     18.12% # attempts to use FU when none available (Count)
system.cpu.statFuBusy::SimdFloatReduceAdd            0      0.00%     18.12% # attempts to use FU when none available (Count)
system.cpu.statFuBusy::SimdFloatReduceCmp            0      0.00%     18.12% # attempts to use FU when none available (Count)
system.cpu.statFuBusy::SimdAes                      0      0.00%     18.12% # attempts to use FU when none available (Count)
system.cpu.statFuBusy::SimdAesMix                   0      0.00%     18.12% # attempts to use FU when none available (Count)
system.cpu.statFuBusy::SimdSha1Hash                 0      0.00%     18.12% # attempts to use FU when none available (Count)
system.cpu.statFuBusy::SimdSha1Hash2                0      0.00%     18.12% # attempts to use FU when none available (Count)
system.cpu.statFuBusy::SimdSha256Hash               0      0.00%     18.12% # attempts to use FU when none available (Count)
system.cpu.statFuBusy::SimdSha256Hash2              0      0.00%     18.12% # attempts to use FU when none available (Count)
system.cpu.statFuBusy::SimdShaSigma2                0      0.00%     18.12% # attempts to use FU when none available (Count)
system.cpu.statFuBusy::SimdShaSigma3                0      0.00%     18.12% # attempts to use FU when none available (Count)
system.cpu.statFuBusy::SimdPredAlu                  0      0.00%     18.12% # attempts to use FU when none available (Count)
system.cpu.statFuBusy::MemRead                 184769     79.73%     97.85% # attempts to use FU when none available (Count)
system.cpu.statFuBusy::MemWrite                  4620      1.99%     99.85% # attempts to use FU when none available (Count)
system.cpu.statFuBusy::FloatMemRead               241      0.10%     99.95% # attempts to use FU when none available (Count)
system.cpu.statFuBusy::FloatMemWrite              118      0.05%    100.00% # attempts to use FU when none available (Count)
system.cpu.statFuBusy::IprAccess                    0      0.00%    100.00% # attempts to use FU when none available (Count)
system.cpu.statFuBusy::InstPrefetch                 0      0.00%    100.00% # attempts to use FU when none available (Count)
system.cpu.statIssuedInstType_0::No_OpClass      1602036      1.73%      1.73% # Number of instructions issued per FU type, per thread (Count)
system.cpu.statIssuedInstType_0::IntAlu      53998780     58.26%     59.99% # Number of instructions issued per FU type, per thread (Count)
system.cpu.statIssuedInstType_0::IntMult         1915      0.00%     59.99% # Number of instructions issued per FU type, per thread (Count)
system.cpu.statIssuedInstType_0::IntDiv         45649      0.05%     60.04% # Number of instructions issued per FU type, per thread (Count)
system.cpu.statIssuedInstType_0::FloatAdd      1847823      1.99%     62.03% # Number of instructions issued per FU type, per thread (Count)
system.cpu.statIssuedInstType_0::FloatCmp            0      0.00%     62.03% # Number of instructions issued per FU type, per thread (Count)
system.cpu.statIssuedInstType_0::FloatCvt       262384      0.28%     62.31% # Number of instructions issued per FU type, per thread (Count)
system.cpu.statIssuedInstType_0::FloatMult       262144      0.28%     62.60% # Number of instructions issued per FU type, per thread (Count)
system.cpu.statIssuedInstType_0::FloatMultAcc            0      0.00%     62.60% # Number of instructions issued per FU type, per thread (Count)
system.cpu.statIssuedInstType_0::FloatDiv            0      0.00%     62.60% # Number of instructions issued per FU type, per thread (Count)
system.cpu.statIssuedInstType_0::FloatMisc            0      0.00%     62.60% # Number of instructions issued per FU type, per thread (Count)
system.cpu.statIssuedInstType_0::FloatSqrt            0      0.00%     62.60% # Number of instructions issued per FU type, per thread (Count)
system.cpu.statIssuedInstType_0::SimdAdd         6716      0.01%     62.60% # Number of instructions issued per FU type, per thread (Count)
system.cpu.statIssuedInstType_0::SimdAddAcc            0      0.00%     62.60% # Number of instructions issued per FU type, per thread (Count)
system.cpu.statIssuedInstType_0::SimdAlu       274319      0.30%     62.90% # Number of instructions issued per FU type, per thread (Count)
system.cpu.statIssuedInstType_0::SimdCmp            8      0.00%     62.90% # Number of instructions issued per FU type, per thread (Count)
system.cpu.statIssuedInstType_0::SimdCvt        13933      0.02%     62.92% # Number of instructions issued per FU type, per thread (Count)
system.cpu.statIssuedInstType_0::SimdMisc       405687      0.44%     63.35% # Number of instructions issued per FU type, per thread (Count)
system.cpu.statIssuedInstType_0::SimdMult            0      0.00%     63.35% # Number of instructions issued per FU type, per thread (Count)
system.cpu.statIssuedInstType_0::SimdMultAcc            0      0.00%     63.35% # Number of instructions issued per FU type, per thread (Count)
system.cpu.statIssuedInstType_0::SimdShift         1029      0.00%     63.35% # Number of instructions issued per FU type, per thread (Count)
system.cpu.statIssuedInstType_0::SimdShiftAcc            0      0.00%     63.35% # Number of instructions issued per FU type, per thread (Count)
system.cpu.statIssuedInstType_0::SimdDiv            0      0.00%     63.35% # Number of instructions issued per FU type, per thread (Count)
system.cpu.statIssuedInstType_0::SimdSqrt            0      0.00%     63.35% # Number of instructions issued per FU type, per thread (Count)
system.cpu.statIssuedInstType_0::SimdFloatAdd       524370      0.57%     63.92% # Number of instructions issued per FU type, per thread (Count)
system.cpu.statIssuedInstType_0::SimdFloatAlu            0      0.00%     63.92% # Number of instructions issued per FU type, per thread (Count)
system.cpu.statIssuedInstType_0::SimdFloatCmp            0      0.00%     63.92% # Number of instructions issued per FU type, per thread (Count)
system.cpu.statIssuedInstType_0::SimdFloatCvt       394456      0.43%     64.35% # Number of instructions issued per FU type, per thread (Count)
system.cpu.statIssuedInstType_0::SimdFloatDiv       131079      0.14%     64.49% # Number of instructions issued per FU type, per thread (Count)
system.cpu.statIssuedInstType_0::SimdFloatMisc            0      0.00%     64.49% # Number of instructions issued per FU type, per thread (Count)
system.cpu.statIssuedInstType_0::SimdFloatMult       393264      0.42%     64.91% # Number of instructions issued per FU type, per thread (Count)
system.cpu.statIssuedInstType_0::SimdFloatMultAcc            0      0.00%     64.91% # Number of instructions issued per FU type, per thread (Count)
system.cpu.statIssuedInstType_0::SimdFloatSqrt            0      0.00%     64.91% # Number of instructions issued per FU type, per thread (Count)
system.cpu.statIssuedInstType_0::SimdReduceAdd            0      0.00%     64.91% # Number of instructions issued per FU type, per thread (Count)
system.cpu.statIssuedInstType_0::SimdReduceAlu            0      0.00%     64.91% # Number of instructions issued per FU type, per thread (Count)
system.cpu.statIssuedInstType_0::SimdReduceCmp            0      0.00%     64.91% # Number of instructions issued per FU type, per thread (Count)
system.cpu.statIssuedInstType_0::SimdFloatReduceAdd            0      0.00%     64.91% # Number of instructions issued per FU type, per thread (Count)
system.cpu.statIssuedInstType_0::SimdFloatReduceCmp            0      0.00%     64.91% # Number of instructions issued per FU type, per thread (Count)
system.cpu.statIssuedInstType_0::SimdAes            0      0.00%     64.91% # Number of instructions issued per FU type, per thread (Count)
system.cpu.statIssuedInstType_0::SimdAesMix            0      0.00%     64.91% # Number of instructions issued per FU type, per thread (Count)
system.cpu.statIssuedInstType_0::SimdSha1Hash            0      0.00%     64.91% # Number of instructions issued per FU type, per thread (Count)
system.cpu.statIssuedInstType_0::SimdSha1Hash2            0      0.00%     64.91% # Number of instructions issued per FU type, per thread (Count)
system.cpu.statIssuedInstType_0::SimdSha256Hash            0      0.00%     64.91% # Number of instructions issued per FU type, per thread (Count)
system.cpu.statIssuedInstType_0::SimdSha256Hash2            0      0.00%     64.91% # Number of instructions issued per FU type, per thread (Count)
system.cpu.statIssuedInstType_0::SimdShaSigma2            0      0.00%     64.91% # Number of instructions issued per FU type, per thread (Count)
system.cpu.statIssuedInstType_0::SimdShaSigma3            0      0.00%     64.91% # Number of instructions issued per FU type, per thread (Count)
system.cpu.statIssuedInstType_0::SimdPredAlu            0      0.00%     64.91% # Number of instructions issued per FU type, per thread (Count)
system.cpu.statIssuedInstType_0::MemRead     19194393     20.71%     85.62% # Number of instructions issued per FU type, per thread (Count)
system.cpu.statIssuedInstType_0::MemWrite      9622328     10.38%     96.00% # Number of instructions issued per FU type, per thread (Count)
system.cpu.statIssuedInstType_0::FloatMemRead      2383927      2.57%     98.57% # Number of instructions issued per FU type, per thread (Count)
system.cpu.statIssuedInstType_0::FloatMemWrite      1322466      1.43%    100.00% # Number of instructions issued per FU type, per thread (Count)
system.cpu.statIssuedInstType_0::IprAccess            0      0.00%    100.00% # Number of instructions issued per FU type, per thread (Count)
system.cpu.statIssuedInstType_0::InstPrefetch            0      0.00%    100.00% # Number of instructions issued per FU type, per thread (Count)
system.cpu.statIssuedInstType_0::total       92688706                       # Number of instructions issued per FU type, per thread (Count)
system.cpu.issueRate                         1.255448                       # Inst issue rate ((Count/Cycle))
system.cpu.fuBusy                              231747                       # FU busy when requested (Count)
system.cpu.fuBusyRate                        0.002500                       # FU busy rate (busy events/executed inst) ((Count/Count))
system.cpu.intInstQueueReads                237034255                       # Number of integer instruction queue reads (Count)
system.cpu.intInstQueueWrites               101211626                       # Number of integer instruction queue writes (Count)
system.cpu.intInstQueueWakeupAccesses        82765931                       # Number of integer instruction queue wakeup accesses (Count)
system.cpu.fpInstQueueReads                  18557585                       # Number of floating instruction queue reads (Count)
system.cpu.fpInstQueueWrites                  9358104                       # Number of floating instruction queue writes (Count)
system.cpu.fpInstQueueWakeupAccesses          9274054                       # Number of floating instruction queue wakeup accesses (Count)
system.cpu.vecInstQueueReads                        0                       # Number of vector instruction queue reads (Count)
system.cpu.vecInstQueueWrites                       0                       # Number of vector instruction queue writes (Count)
system.cpu.vecInstQueueWakeupAccesses               0                       # Number of vector instruction queue wakeup accesses (Count)
system.cpu.intAluAccesses                    82039368                       # Number of integer alu accesses (Count)
system.cpu.fpAluAccesses                      9279049                       # Number of floating point alu accesses (Count)
system.cpu.vecAluAccesses                           0                       # Number of vector alu accesses (Count)
system.cpu.idleCycles                               0                       # Number of cycles IEW is idle (Cycle)
system.cpu.squashCycles                        157752                       # Number of cycles IEW is squashing (Cycle)
system.cpu.blockCycles                        2087271                       # Number of cycles IEW is blocking (Cycle)
system.cpu.unblockCycles                       621444                       # Number of cycles IEW is unblocking (Cycle)
system.cpu.dispatchedInsts                   96884239                       # Number of instructions dispatched to IQ (Count)
system.cpu.dispSquashedInsts                     1077                       # Number of squashed instructions skipped by dispatch (Count)
system.cpu.dispLoadInsts                     22414864                       # Number of dispatched load instructions (Count)
system.cpu.dispStoreInsts                    11379824                       # Number of dispatched store instructions (Count)
system.cpu.dispNonSpecInsts                    918474                       # Number of dispatched non-speculative instructions (Count)
system.cpu.iqFullEvents                         25419                       # Number of times the IQ has become full, causing a stall (Count)
system.cpu.lsqFullEvents                       570962                       # Number of times the LSQ has become full, causing a stall (Count)
system.cpu.memOrderViolationEvents               3628                       # Number of memory order violations (Count)
system.cpu.predictedTakenIncorrect              72847                       # Number of branches that were predicted taken incorrectly (Count)
system.cpu.predictedNotTakenIncorrect           75713                       # Number of branches that were predicted not taken incorrectly (Count)
system.cpu.branchMispredicts                   148560                       # Number of branch mispredicts detected at execute (Count)
system.cpu.numInsts                          92268266                       # Number of executed instructions (Count)
system.cpu.numLoadInsts                      21475558                       # Number of load instructions executed (Count)
system.cpu.numSquashedInsts                    420435                       # Number of squashed instructions skipped in execute (Count)
system.cpu.numSwp                                   0                       # Number of swp insts executed (Count)
system.cpu.numNop                                   0                       # Number of nop insts executed (Count)
system.cpu.numRefs                           32282251                       # Number of memory reference insts executed (Count)
system.cpu.numBranches                        6938812                       # Number of branches executed (Count)
system.cpu.numStoreInsts                     10806693                       # Number of stores executed (Count)
system.cpu.numRate                           1.249753                       # Inst execution rate ((Count/Cycle))
system.cpu.instsToCommit                     92118549                       # Cumulative count of insts sent to commit (Count)
system.cpu.writebackCount                    92039985                       # Cumulative count of insts written-back (Count)
system.cpu.producerInst                      65756278                       # Number of instructions producing a value (Count)
system.cpu.consumerInst                     106216689                       # Number of instructions consuming a value (Count)
system.cpu.wbRate                            1.246661                       # Insts written-back per cycle ((Count/Cycle))
system.cpu.wbFanout                          0.619077                       # Average fanout of values written-back ((Count/Count))
system.cpu.timesIdled                          164071                       # Number of times that the entire CPU went into an idle state and unscheduled itself (Count)
system.cpu.idleCycles                         3848179                       # Total number of cycles that the CPU has spent unscheduled due to idling (Cycle)
system.cpu.committedInsts                    46698355                       # Number of Instructions Simulated (Count)
system.cpu.committedOps                      83201955                       # Number of Ops (including micro ops) Simulated (Count)
system.cpu.cpi                               1.580981                       # CPI: Cycles Per Instruction ((Cycle/Count))
system.cpu.totalCpi                          1.580981                       # CPI: Total CPI of All Threads ((Cycle/Count))
system.cpu.ipc                               0.632519                       # IPC: Instructions Per Cycle ((Count/Cycle))
system.cpu.totalIpc                          0.632519                       # IPC: Total IPC of All Threads ((Count/Cycle))
system.cpu.intRegfileReads                  145471479                       # Number of integer regfile reads (Count)
system.cpu.intRegfileWrites                  64763909                       # Number of integer regfile writes (Count)
system.cpu.fpRegfileReads                     9171966                       # Number of floating regfile reads (Count)
system.cpu.fpRegfileWrites                    7419527                       # Number of floating regfile writes (Count)
system.cpu.ccRegfileReads                    19463688                       # number of cc regfile reads (Count)
system.cpu.ccRegfileWrites                   19757004                       # number of cc regfile writes (Count)
system.cpu.miscRegfileReads                  47330516                       # number of misc regfile reads (Count)
system.cpu.miscRegfileWrites                  1835143                       # number of misc regfile writes (Count)
system.cpu.MemDepUnit__0.insertedLoads       22414864                       # Number of loads inserted to the mem dependence unit. (Count)
system.cpu.MemDepUnit__0.insertedStores      11379824                       # Number of stores inserted to the mem dependence unit. (Count)
system.cpu.MemDepUnit__0.conflictingLoads      8823341                       # Number of conflicting loads. (Count)
system.cpu.MemDepUnit__0.conflictingStores      2169911                       # Number of conflicting stores. (Count)
system.cpu.MemDepUnit__1.insertedLoads              0                       # Number of loads inserted to the mem dependence unit. (Count)
system.cpu.MemDepUnit__1.insertedStores             0                       # Number of stores inserted to the mem dependence unit. (Count)
system.cpu.MemDepUnit__1.conflictingLoads            0                       # Number of conflicting loads. (Count)
system.cpu.MemDepUnit__1.conflictingStores            0                       # Number of conflicting stores. (Count)
system.cpu.MemDepUnit__2.insertedLoads              0                       # Number of loads inserted to the mem dependence unit. (Count)
system.cpu.MemDepUnit__2.insertedStores             0                       # Number of stores inserted to the mem dependence unit. (Count)
system.cpu.MemDepUnit__2.conflictingLoads            0                       # Number of conflicting loads. (Count)
system.cpu.MemDepUnit__2.conflictingStores            0                       # Number of conflicting stores. (Count)
system.cpu.MemDepUnit__3.insertedLoads              0                       # Number of loads inserted to the mem dependence unit. (Count)
system.cpu.MemDepUnit__3.insertedStores             0                       # Number of stores inserted to the mem dependence unit. (Count)
system.cpu.MemDepUnit__3.conflictingLoads            0                       # Number of conflicting loads. (Count)
system.cpu.MemDepUnit__3.conflictingStores            0                       # Number of conflicting stores. (Count)
system.cpu.branchPred.lookups                 7587369                       # Number of BP lookups (Count)
system.cpu.branchPred.condPredicted           2818094                       # Number of conditional branches predicted (Count)
system.cpu.branchPred.condIncorrect            146786                       # Number of conditional branches incorrect (Count)
system.cpu.branchPred.BTBLookups              4312846                       # Number of BTB lookups (Count)
system.cpu.branchPred.BTBHits                 4310798                       # Number of BTB hits (Count)
system.cpu.branchPred.BTBHitRatio            0.999525                       # BTB Hit Ratio (Ratio)
system.cpu.branchPred.RASUsed                 1602133                       # Number of times the RAS was used to get a target. (Count)
system.cpu.branchPred.RASIncorrect                 15                       # Number of incorrect RAS predictions. (Count)
system.cpu.branchPred.indirectLookups            5547                       # Number of indirect predictor lookups. (Count)
system.cpu.branchPred.indirectHits               3924                       # Number of indirect target hits. (Count)
system.cpu.branchPred.indirectMisses             1623                       # Number of indirect misses. (Count)
system.cpu.branchPred.indirectMispredicted          535                       # Number of mispredicted indirect branches. (Count)
[...]
system.mem_ctrl.rdPerTurnAround::13                 5      0.82%      4.61% # Reads before turning the bus around for writes (Count)
system.mem_ctrl.rdPerTurnAround::14                17      2.80%      7.40% # Reads before turning the bus around for writes (Count)
system.mem_ctrl.rdPerTurnAround::15                 9      1.48%      8.88% # Reads before turning the bus around for writes (Count)
system.mem_ctrl.rdPerTurnAround::16               539     88.65%     97.53% # Reads before turning the bus around for writes (Count)
system.mem_ctrl.rdPerTurnAround::17                11      1.81%     99.34% # Reads before turning the bus around for writes (Count)
system.mem_ctrl.rdPerTurnAround::18                 3      0.49%     99.84% # Reads before turning the bus around for writes (Count)
system.mem_ctrl.rdPerTurnAround::22                 1      0.16%    100.00% # Reads before turning the bus around for writes (Count)
system.mem_ctrl.rdPerTurnAround::total            608                       # Reads before turning the bus around for writes (Count)
system.mem_ctrl.wrPerTurnAround::samples          608                       # Writes before turning the bus around for reads (Count)
system.mem_ctrl.wrPerTurnAround::mean       16.031250                       # Writes before turning the bus around for reads (Count)
system.mem_ctrl.wrPerTurnAround::gmean      16.028980                       # Writes before turning the bus around for reads (Count)
system.mem_ctrl.wrPerTurnAround::stdev       0.288169                       # Writes before turning the bus around for reads (Count)
system.mem_ctrl.wrPerTurnAround::16               598     98.36%     98.36% # Writes before turning the bus around for reads (Count)
system.mem_ctrl.wrPerTurnAround::17                 5      0.82%     99.18% # Writes before turning the bus around for reads (Count)
system.mem_ctrl.wrPerTurnAround::18                 3      0.49%     99.67% # Writes before turning the bus around for reads (Count)
system.mem_ctrl.wrPerTurnAround::19                 1      0.16%     99.84% # Writes before turning the bus around for reads (Count)
system.mem_ctrl.wrPerTurnAround::21                 1      0.16%    100.00% # Writes before turning the bus around for reads (Count)
system.mem_ctrl.wrPerTurnAround::total            608                       # Writes before turning the bus around for reads (Count)
system.mem_ctrl.bytesReadWrQ                    17600                       # Total number of bytes read from write queue (Byte)
system.mem_ctrl.bytesReadSys                   629440                       # Total read bytes from the system interface side (Byte)
system.mem_ctrl.bytesWrittenSys                629376                       # Total written bytes from the system interface side (Byte)
system.mem_ctrl.avgRdBWSys               797576252.13668180                       # Average system read bandwidth in Byte/s ((Byte/Second))
system.mem_ctrl.avgWrBWSys               797495156.43234658                       # Average system write bandwidth in Byte/s ((Byte/Second))
system.mem_ctrl.totGap                      789067000                       # Total gap between requests (Tick)
system.mem_ctrl.avgGap                       40117.29                       # Average gap between requests ((Tick/Count))
system.mem_ctrl.requestorReadBytes::caches.controllers1       611840                       # Per-requestor bytes read from memory (Byte)
system.mem_ctrl.requestorWriteBytes::caches.controllers1       623808                       # Per-requestor bytes write to memory (Byte)
system.mem_ctrl.requestorReadRate::caches.controllers1 775274933.444502115250                       # Per-requestor bytes read from memory rate ((Byte/Second))
system.mem_ctrl.requestorWriteRate::caches.controllers1 790439830.155184268951                       # Per-requestor bytes write to memory rate ((Byte/Second))
system.mem_ctrl.requestorReadAccesses::caches.controllers1         9835                       # Per-requestor read serviced memory accesses (Count)
system.mem_ctrl.requestorWriteAccesses::caches.controllers1         9834                       # Per-requestor write serviced memory accesses (Count)
system.mem_ctrl.requestorReadTotalLat::caches.controllers1    308590500                       # Per-requestor read total memory access latency (Tick)
system.mem_ctrl.requestorWriteTotalLat::caches.controllers1  19489770750                       # Per-requestor write total memory access latency (Tick)
system.mem_ctrl.requestorReadAvgLat::caches.controllers1     31376.77                       # Per-requestor read average memory access latency ((Tick/Count))
system.mem_ctrl.requestorWriteAvgLat::caches.controllers1   1981876.22                       # Per-requestor write average memory access latency ((Tick/Count))
system.mem_ctrl.dram.bytesRead::caches.controllers1       629440                       # Number of bytes read from this memory (Byte)
system.mem_ctrl.dram.bytesRead::total          629440                       # Number of bytes read from this memory (Byte)
system.mem_ctrl.dram.bytesWritten::caches.controllers1       629376                       # Number of bytes written to this memory (Byte)
system.mem_ctrl.dram.bytesWritten::total       629376                       # Number of bytes written to this memory (Byte)
system.mem_ctrl.dram.numReads::caches.controllers1         9835                       # Number of read requests responded to by this memory (Count)
system.mem_ctrl.dram.numReads::total             9835                       # Number of read requests responded to by this memory (Count)
system.mem_ctrl.dram.numWrites::caches.controllers1         9834                       # Number of write requests responded to by this memory (Count)
system.mem_ctrl.dram.numWrites::total            9834                       # Number of write requests responded to by this memory (Count)
system.mem_ctrl.dram.bwRead::caches.controllers1    797576252                       # Total read bandwidth from this memory ((Byte/Second))
system.mem_ctrl.dram.bwRead::total          797576252                       # Total read bandwidth from this memory ((Byte/Second))
system.mem_ctrl.dram.bwWrite::caches.controllers1    797495156                       # Write bandwidth from this memory ((Byte/Second))
system.mem_ctrl.dram.bwWrite::total         797495156                       # Write bandwidth from this memory ((Byte/Second))
system.mem_ctrl.dram.bwTotal::caches.controllers1   1595071409                       # Total bandwidth to/from this memory ((Byte/Second))
system.mem_ctrl.dram.bwTotal::total        1595071409                       # Total bandwidth to/from this memory ((Byte/Second))
system.mem_ctrl.dram.readBursts                  9560                       # Number of DRAM read bursts (Count)
system.mem_ctrl.dram.writeBursts                 9747                       # Number of DRAM write bursts (Count)
system.mem_ctrl.dram.perBankRdBursts::0           519                       # Per bank write bursts (Count)
system.mem_ctrl.dram.perBankRdBursts::1           562                       # Per bank write bursts (Count)
system.mem_ctrl.dram.perBankRdBursts::2           667                       # Per bank write bursts (Count)
system.mem_ctrl.dram.perBankRdBursts::3           640                       # Per bank write bursts (Count)
system.mem_ctrl.dram.perBankRdBursts::4           605                       # Per bank write bursts (Count)
system.mem_ctrl.dram.perBankRdBursts::5           563                       # Per bank write bursts (Count)
system.mem_ctrl.dram.perBankRdBursts::6           557                       # Per bank write bursts (Count)
system.mem_ctrl.dram.perBankRdBursts::7           632                       # Per bank write bursts (Count)
system.mem_ctrl.dram.perBankRdBursts::8           520                       # Per bank write bursts (Count)
system.mem_ctrl.dram.perBankRdBursts::9           587                       # Per bank write bursts (Count)
system.mem_ctrl.dram.perBankRdBursts::10          588                       # Per bank write bursts (Count)
system.mem_ctrl.dram.perBankRdBursts::11          529                       # Per bank write bursts (Count)
system.mem_ctrl.dram.perBankRdBursts::12          633                       # Per bank write bursts (Count)
system.mem_ctrl.dram.perBankRdBursts::13          723                       # Per bank write bursts (Count)
system.mem_ctrl.dram.perBankRdBursts::14          680                       # Per bank write bursts (Count)
system.mem_ctrl.dram.perBankRdBursts::15          555                       # Per bank write bursts (Count)
system.mem_ctrl.dram.perBankWrBursts::0           519                       # Per bank write bursts (Count)
system.mem_ctrl.dram.perBankWrBursts::1           561                       # Per bank write bursts (Count)
system.mem_ctrl.dram.perBankWrBursts::2           676                       # Per bank write bursts (Count)
system.mem_ctrl.dram.perBankWrBursts::3           653                       # Per bank write bursts (Count)
system.mem_ctrl.dram.perBankWrBursts::4           621                       # Per bank write bursts (Count)
system.mem_ctrl.dram.perBankWrBursts::5           566                       # Per bank write bursts (Count)
system.mem_ctrl.dram.perBankWrBursts::6           557                       # Per bank write bursts (Count)
system.mem_ctrl.dram.perBankWrBursts::7           644                       # Per bank write bursts (Count)
system.mem_ctrl.dram.perBankWrBursts::8           520                       # Per bank write bursts (Count)
system.mem_ctrl.dram.perBankWrBursts::9           597                       # Per bank write bursts (Count)
system.mem_ctrl.dram.perBankWrBursts::10          600                       # Per bank write bursts (Count)
system.mem_ctrl.dram.perBankWrBursts::11          572                       # Per bank write bursts (Count)
system.mem_ctrl.dram.perBankWrBursts::12          657                       # Per bank write bursts (Count)
system.mem_ctrl.dram.perBankWrBursts::13          758                       # Per bank write bursts (Count)
system.mem_ctrl.dram.perBankWrBursts::14          690                       # Per bank write bursts (Count)
system.mem_ctrl.dram.perBankWrBursts::15          556                       # Per bank write bursts (Count)
system.mem_ctrl.dram.totQLat                129340500                       # Total ticks spent queuing (Tick)
system.mem_ctrl.dram.totBusLat               47800000                       # Total ticks spent in databus transfers (Tick)
system.mem_ctrl.dram.totMemAccLat           308590500                       # Total ticks spent from burst creation until serviced by the DRAM (Tick)
system.mem_ctrl.dram.avgQLat                 13529.34                       # Average queueing delay per DRAM burst ((Tick/Count))
system.mem_ctrl.dram.avgBusLat                5000.00                       # Average bus latency per DRAM burst ((Tick/Count))
system.mem_ctrl.dram.avgMemAccLat            32279.34                       # Average memory access latency per DRAM burst ((Tick/Count))
system.mem_ctrl.dram.readRowHits                 8531                       # Number of row buffer hits during reads (Count)
system.mem_ctrl.dram.writeRowHits                8987                       # Number of row buffer hits during writes (Count)
system.mem_ctrl.dram.readRowHitRate             89.24                       # Row buffer hit rate for reads (Ratio)
system.mem_ctrl.dram.writeRowHitRate            92.20                       # Row buffer hit rate for writes (Ratio)
system.mem_ctrl.dram.bytesPerActivate::samples         1784                       # Bytes accessed per row activation (Byte)
system.mem_ctrl.dram.bytesPerActivate::mean   691.659193                       # Bytes accessed per row activation (Byte)
system.mem_ctrl.dram.bytesPerActivate::gmean   489.967184                       # Bytes accessed per row activation (Byte)
system.mem_ctrl.dram.bytesPerActivate::stdev   400.020763                       # Bytes accessed per row activation (Byte)
system.mem_ctrl.dram.bytesPerActivate::0-127          205     11.49%     11.49% # Bytes accessed per row activation (Byte)
system.mem_ctrl.dram.bytesPerActivate::128-255          234     13.12%     24.61% # Bytes accessed per row activation (Byte)
system.mem_ctrl.dram.bytesPerActivate::256-383          113      6.33%     30.94% # Bytes accessed per row activation (Byte)
system.mem_ctrl.dram.bytesPerActivate::384-511           79      4.43%     35.37% # Bytes accessed per row activation (Byte)
system.mem_ctrl.dram.bytesPerActivate::512-639           58      3.25%     38.62% # Bytes accessed per row activation (Byte)
system.mem_ctrl.dram.bytesPerActivate::640-767           53      2.97%     41.59% # Bytes accessed per row activation (Byte)
system.mem_ctrl.dram.bytesPerActivate::768-895           45      2.52%     44.11% # Bytes accessed per row activation (Byte)
system.mem_ctrl.dram.bytesPerActivate::896-1023           33      1.85%     45.96% # Bytes accessed per row activation (Byte)
system.mem_ctrl.dram.bytesPerActivate::1024-1151          964     54.04%    100.00% # Bytes accessed per row activation (Byte)
system.mem_ctrl.dram.bytesPerActivate::total         1784                       # Bytes accessed per row activation (Byte)
system.mem_ctrl.dram.bytesRead                 611840                       # Total number of bytes read from DRAM (Byte)
system.mem_ctrl.dram.bytesWritten              623808                       # Total number of bytes written to DRAM (Byte)
system.mem_ctrl.dram.avgRdBW               775.274933                       # Average DRAM read bandwidth in MiBytes/s ((Byte/Second))
system.mem_ctrl.dram.avgWrBW               790.439830                       # Average DRAM write bandwidth in MiBytes/s ((Byte/Second))
system.mem_ctrl.dram.peakBW                  12800.00                       # Theoretical peak bandwidth in MiByte/s ((Byte/Second))
system.mem_ctrl.dram.busUtil                    12.23                       # Data bus utilization in percentage (Ratio)
system.mem_ctrl.dram.busUtilRead                 6.06                       # Data bus utilization in percentage for reads (Ratio)
system.mem_ctrl.dram.busUtilWrite                6.18                       # Data bus utilization in percentage for writes (Ratio)
system.mem_ctrl.dram.pageHitRate                90.73                       # Row buffer hit rate, read and write combined (Ratio)
system.mem_ctrl.dram.power_state.pwrStateResidencyTicks::UNDEFINED    789191000                       # Cumulative time (in ticks) in various power states (Tick)
system.mem_ctrl.dram.rank0.actEnergy          6340320                       # Energy for activate commands per rank (pJ) (Joule)
system.mem_ctrl.dram.rank0.preEnergy          3362370                       # Energy for precharge commands per rank (pJ) (Joule)
system.mem_ctrl.dram.rank0.readEnergy        33879300                       # Energy for read commands per rank (pJ) (Joule)
system.mem_ctrl.dram.rank0.writeEnergy       25040340                       # Energy for write commands per rank (pJ) (Joule)
system.mem_ctrl.dram.rank0.refreshEnergy 62078640.000000                       # Energy for refresh commands per rank (pJ) (Joule)
system.mem_ctrl.dram.rank0.actBackEnergy    213596100                       # Energy for active background per rank (pJ) (Joule)
system.mem_ctrl.dram.rank0.preBackEnergy    123179040                       # Energy for precharge background per rank (pJ) (Joule)
system.mem_ctrl.dram.rank0.actPowerDownEnergy            0                       # Energy for active power-down per rank (pJ) (Joule)
system.mem_ctrl.dram.rank0.prePowerDownEnergy            0                       # Energy for precharge power-down per rank (pJ) (Joule)
system.mem_ctrl.dram.rank0.selfRefreshEnergy            0                       # Energy for self refresh per rank (pJ) (Joule)
system.mem_ctrl.dram.rank0.totalEnergy      467476110                       # Total energy per rank (pJ) (Joule)
system.mem_ctrl.dram.rank0.averagePower    592.348506                       # Core power per rank (mW) (Watt)
system.mem_ctrl.dram.rank0.totalIdleTime            0                       # Total Idle time Per DRAM Rank (Tick)
system.mem_ctrl.dram.rank0.pwrStateTime::IDLE    316618750                       # Time in different power states (Tick)
system.mem_ctrl.dram.rank0.pwrStateTime::REF     26260000                       # Time in different power states (Tick)
system.mem_ctrl.dram.rank0.pwrStateTime::SREF            0                       # Time in different power states (Tick)
system.mem_ctrl.dram.rank0.pwrStateTime::PRE_PDN            0                       # Time in different power states (Tick)
system.mem_ctrl.dram.rank0.pwrStateTime::ACT    446312250                       # Time in different power states (Tick)
system.mem_ctrl.dram.rank0.pwrStateTime::ACT_PDN            0                       # Time in different power states (Tick)
system.mem_ctrl.dram.rank1.actEnergy          6433140                       # Energy for activate commands per rank (pJ) (Joule)
system.mem_ctrl.dram.rank1.preEnergy          3407910                       # Energy for precharge commands per rank (pJ) (Joule)
system.mem_ctrl.dram.rank1.readEnergy        34379100                       # Energy for read commands per rank (pJ) (Joule)
system.mem_ctrl.dram.rank1.writeEnergy       25839000                       # Energy for write commands per rank (pJ) (Joule)
system.mem_ctrl.dram.rank1.refreshEnergy 62078640.000000                       # Energy for refresh commands per rank (pJ) (Joule)
system.mem_ctrl.dram.rank1.actBackEnergy    211748160                       # Energy for active background per rank (pJ) (Joule)
system.mem_ctrl.dram.rank1.preBackEnergy    124735200                       # Energy for precharge background per rank (pJ) (Joule)
system.mem_ctrl.dram.rank1.actPowerDownEnergy            0                       # Energy for active power-down per rank (pJ) (Joule)
system.mem_ctrl.dram.rank1.prePowerDownEnergy            0                       # Energy for precharge power-down per rank (pJ) (Joule)
system.mem_ctrl.dram.rank1.selfRefreshEnergy            0                       # Energy for self refresh per rank (pJ) (Joule)
system.mem_ctrl.dram.rank1.totalEnergy      468621150                       # Total energy per rank (pJ) (Joule)
system.mem_ctrl.dram.rank1.averagePower    593.799410                       # Core power per rank (mW) (Watt)
system.mem_ctrl.dram.rank1.totalIdleTime            0                       # Total Idle time Per DRAM Rank (Tick)
system.mem_ctrl.dram.rank1.pwrStateTime::IDLE    320806250                       # Time in different power states (Tick)
system.mem_ctrl.dram.rank1.pwrStateTime::REF     26260000                       # Time in different power states (Tick)
system.mem_ctrl.dram.rank1.pwrStateTime::SREF            0                       # Time in different power states (Tick)
system.mem_ctrl.dram.rank1.pwrStateTime::PRE_PDN            0                       # Time in different power states (Tick)
system.mem_ctrl.dram.rank1.pwrStateTime::ACT    442124750                       # Time in different power states (Tick)
system.mem_ctrl.dram.rank1.pwrStateTime::ACT_PDN            0                       # Time in different power states (Tick)
system.mem_ctrl.power_state.pwrStateResidencyTicks::UNDEFINED    789191000                       # Cumulative time (in ticks) in various power states (Tick)
system.workload.inst.arm                            0                       # number of arm instructions executed (Count)
system.workload.inst.quiesce                        0                       # number of quiesce instructions executed (Count)

---------- End Simulation Statistics   ----------
