
---------- Begin Simulation Statistics ----------
simSeconds                                   0.000219                       # Number of seconds simulated (Second)
simTicks                                    219172000                       # Number of ticks simulated (Tick)
finalTick                                   219172000                       # Number of ticks from beginning of simulation (restored from checkpoints and never reset) (Tick)
simFreq                                  1000000000000                       # The number of ticks per simulated second ((Tick/Second))
hostSeconds                                      0.78                       # Real time elapsed on the host (Second)
hostTickRate                                279930659                       # The number of ticks simulated per host second (ticks/s) ((Tick/Second))
hostMemory                                     750156                       # Number of bytes of host memory used (Byte)
simInsts                                       123064                       # Number of instructions simulated (Count)
simOps                                         227381                       # Number of ops (including micro ops) simulated (Count)
hostInstRate                                   157153                       # Simulator instruction rate (inst/s) ((Count/Second))
hostOpRate                                     290362                       # Simulator op (including micro ops) rate (op/s) ((Count/Second))
system.caches.delayHistogram::bucket_size            2                       # delay histogram for all message (Unspecified)
system.caches.delayHistogram::max_bucket           19                       # delay histogram for all message (Unspecified)
system.caches.delayHistogram::samples            6436                       # delay histogram for all message (Unspecified)
system.caches.delayHistogram::mean           0.066812                       # delay histogram for all message (Unspecified)
system.caches.delayHistogram::stdev          0.609593                       # delay histogram for all message (Unspecified)
system.caches.delayHistogram             |        6345     98.59%     98.59% |          23      0.36%     98.94% |          26      0.40%     99.35% |          29      0.45%     99.80% |          12      0.19%     99.98% |           1      0.02%    100.00% |           0      0.00%    100.00% |           0      0.00%    100.00% |           0      0.00%    100.00% |           0      0.00%    100.00% # delay histogram for all message (Unspecified)
system.caches.delayHistogram::total              6436                       # delay histogram for all message (Unspecified)
system.caches.m_outstandReqHistSeqr::bucket_size            2                       (Unspecified)
system.caches.m_outstandReqHistSeqr::max_bucket           19                       (Unspecified)
system.caches.m_outstandReqHistSeqr::samples        69647                       (Unspecified)
system.caches.m_outstandReqHistSeqr::mean     2.697905                       (Unspecified)
system.caches.m_outstandReqHistSeqr::gmean     1.935777                       (Unspecified)
system.caches.m_outstandReqHistSeqr::stdev     2.920006                       (Unspecified)
system.caches.m_outstandReqHistSeqr      |       30359     43.59%     43.59% |       26705     38.34%     81.93% |        6044      8.68%     90.61% |        1624      2.33%     92.94% |        1038      1.49%     94.43% |        1304      1.87%     96.31% |        1000      1.44%     97.74% |         750      1.08%     98.82% |         823      1.18%    100.00% |           0      0.00%    100.00% (Unspecified)
system.caches.m_outstandReqHistSeqr::total        69647                       (Unspecified)
system.caches.m_latencyHistSeqr::bucket_size           64                       (Unspecified)
system.caches.m_latencyHistSeqr::max_bucket          639                       (Unspecified)
system.caches.m_latencyHistSeqr::samples        69741                       (Unspecified)
system.caches.m_latencyHistSeqr::mean        4.699345                       (Unspecified)
system.caches.m_latencyHistSeqr::gmean       1.236533                       (Unspecified)
system.caches.m_latencyHistSeqr::stdev      18.650166                       (Unspecified)
system.caches.m_latencyHistSeqr          |       68459     98.16%     98.16% |         938      1.34%     99.51% |         282      0.40%     99.91% |          15      0.02%     99.93% |          29      0.04%     99.97% |          12      0.02%     99.99% |           4      0.01%    100.00% |           2      0.00%    100.00% |           0      0.00%    100.00% |           0      0.00%    100.00% (Unspecified)
system.caches.m_latencyHistSeqr::total          69741                       (Unspecified)
system.caches.m_hitLatencyHistSeqr::bucket_size           16                       (Unspecified)
system.caches.m_hitLatencyHistSeqr::max_bucket          159                       (Unspecified)
system.caches.m_hitLatencyHistSeqr::samples        66267                       (Unspecified)
system.caches.m_hitLatencyHistSeqr::mean     1.012706                       (Unspecified)
system.caches.m_hitLatencyHistSeqr::gmean     1.001698                       (Unspecified)
system.caches.m_hitLatencyHistSeqr::stdev     0.989665                       (Unspecified)
system.caches.m_hitLatencyHistSeqr       |       66253     99.98%     99.98% |           5      0.01%     99.99% |           3      0.00%     99.99% |           3      0.00%    100.00% |           0      0.00%    100.00% |           1      0.00%    100.00% |           0      0.00%    100.00% |           0      0.00%    100.00% |           1      0.00%    100.00% |           1      0.00%    100.00% (Unspecified)
system.caches.m_hitLatencyHistSeqr::total        66267                       (Unspecified)
system.caches.m_missLatencyHistSeqr::bucket_size           64                       (Unspecified)
system.caches.m_missLatencyHistSeqr::max_bucket          639                       (Unspecified)
system.caches.m_missLatencyHistSeqr::samples         3474                       (Unspecified)
system.caches.m_missLatencyHistSeqr::mean    75.022453                       (Unspecified)
system.caches.m_missLatencyHistSeqr::gmean    68.704088                       (Unspecified)
system.caches.m_missLatencyHistSeqr::stdev    41.950378                       (Unspecified)
system.caches.m_missLatencyHistSeqr      |        2195     63.18%     63.18% |         937     26.97%     90.16% |         280      8.06%     98.22% |          15      0.43%     98.65% |          29      0.83%     99.48% |          12      0.35%     99.83% |           4      0.12%     99.94% |           2      0.06%    100.00% |           0      0.00%    100.00% |           0      0.00%    100.00% (Unspecified)
system.caches.m_missLatencyHistSeqr::total         3474                       (Unspecified)
system.caches.delayVCHist.vnet_1::bucket_size            2                       # delay histogram for vnet_1 (Unspecified)
system.caches.delayVCHist.vnet_1::max_bucket           19                       # delay histogram for vnet_1 (Unspecified)
system.caches.delayVCHist.vnet_1::samples         3474                       # delay histogram for vnet_1 (Unspecified)
system.caches.delayVCHist.vnet_1::mean       0.004606                       # delay histogram for vnet_1 (Unspecified)
system.caches.delayVCHist.vnet_1::stdev      0.185825                       # delay histogram for vnet_1 (Unspecified)
system.caches.delayVCHist.vnet_1         |        3471     99.91%     99.91% |           1      0.03%     99.94% |           1      0.03%     99.97% |           0      0.00%     99.97% |           0      0.00%     99.97% |           1      0.03%    100.00% |           0      0.00%    100.00% |           0      0.00%    100.00% |           0      0.00%    100.00% |           0      0.00%    100.00% # delay histogram for vnet_1 (Unspecified)
system.caches.delayVCHist.vnet_1::total          3474                       # delay histogram for vnet_1 (Unspecified)
system.caches.delayVCHist.vnet_2::bucket_size            1                       # delay histogram for vnet_2 (Unspecified)
system.caches.delayVCHist.vnet_2::max_bucket            9                       # delay histogram for vnet_2 (Unspecified)
system.caches.delayVCHist.vnet_2::samples         2962                       # delay histogram for vnet_2 (Unspecified)
system.caches.delayVCHist.vnet_2::mean       0.139770                       # delay histogram for vnet_2 (Unspecified)
system.caches.delayVCHist.vnet_2::stdev      0.870185                       # delay histogram for vnet_2 (Unspecified)
system.caches.delayVCHist.vnet_2         |        2874     97.03%     97.03% |           0      0.00%     97.03% |          22      0.74%     97.77% |           0      0.00%     97.77% |          25      0.84%     98.62% |           0      0.00%     98.62% |          29      0.98%     99.59% |           0      0.00%     99.59% |          12      0.41%    100.00% |           0      0.00%    100.00% # delay histogram for vnet_2 (Unspecified)
system.caches.delayVCHist.vnet_2::total          2962                       # delay histogram for vnet_2 (Unspecified)
system.caches.L1Cache_Controller.Load           30128      0.00%      0.00% (Unspecified)
system.caches.L1Cache_Controller.Ifetch         24739      0.00%      0.00% (Unspecified)
system.caches.L1Cache_Controller.Store          14875      0.00%      0.00% (Unspecified)
system.caches.L1Cache_Controller.Data            3474      0.00%      0.00% (Unspecified)
system.caches.L1Cache_Controller.Replacement         2963      0.00%      0.00% (Unspecified)
system.caches.L1Cache_Controller.Writeback_Ack         2962      0.00%      0.00% (Unspecified)
system.caches.L1Cache_Controller.I.Load          1723      0.00%      0.00% (Unspecified)
system.caches.L1Cache_Controller.I.Ifetch         1184      0.00%      0.00% (Unspecified)
system.caches.L1Cache_Controller.I.Store          568      0.00%      0.00% (Unspecified)
system.caches.L1Cache_Controller.M.Load         28405      0.00%      0.00% (Unspecified)
system.caches.L1Cache_Controller.M.Ifetch        23555      0.00%      0.00% (Unspecified)
system.caches.L1Cache_Controller.M.Store        14307      0.00%      0.00% (Unspecified)
system.caches.L1Cache_Controller.M.Replacement         2963      0.00%      0.00% (Unspecified)
system.caches.L1Cache_Controller.MI.Writeback_Ack         2962      0.00%      0.00% (Unspecified)
system.caches.L1Cache_Controller.IS.Data         2906      0.00%      0.00% (Unspecified)
system.caches.L1Cache_Controller.IM.Data          568      0.00%      0.00% (Unspecified)
system.caches.Directory_Controller.GETX          3474      0.00%      0.00% (Unspecified)
system.caches.Directory_Controller.PUTX          2962      0.00%      0.00% (Unspecified)
system.caches.Directory_Controller.Memory_Data         3474      0.00%      0.00% (Unspecified)
system.caches.Directory_Controller.Memory_Ack         2962      0.00%      0.00% (Unspecified)
system.caches.Directory_Controller.I.GETX         3474      0.00%      0.00% (Unspecified)
system.caches.Directory_Controller.M.PUTX         2962      0.00%      0.00% (Unspecified)
system.caches.Directory_Controller.IM.Memory_Data         3474      0.00%      0.00% (Unspecified)
system.caches.Directory_Controller.MI.Memory_Ack         2962      0.00%      0.00% (Unspecified)
system.caches.MachineType.Directory.miss_mach_latency_hist_seqr::bucket_size           64                       (Unspecified)
system.caches.MachineType.Directory.miss_mach_latency_hist_seqr::max_bucket          639                       (Unspecified)
system.caches.MachineType.Directory.miss_mach_latency_hist_seqr::samples         3474                       (Unspecified)
system.caches.MachineType.Directory.miss_mach_latency_hist_seqr::mean    75.022453                       (Unspecified)
system.caches.MachineType.Directory.miss_mach_latency_hist_seqr::gmean    68.704088                       (Unspecified)
system.caches.MachineType.Directory.miss_mach_latency_hist_seqr::stdev    41.950378                       (Unspecified)
system.caches.MachineType.Directory.miss_mach_latency_hist_seqr |        2195     63.18%     63.18% |         937     26.97%     90.16% |         280      8.06%     98.22% |          15      0.43%     98.65% |          29      0.83%     99.48% |          12      0.35%     99.83% |           4      0.12%     99.94% |           2      0.06%    100.00% |           0      0.00%    100.00% |           0      0.00%    100.00% (Unspecified)
system.caches.MachineType.Directory.miss_mach_latency_hist_seqr::total         3474                       (Unspecified)
system.caches.MachineType.Directory.miss_latency_hist_seqr.issue_to_initial_request::bucket_size            1                       (Unspecified)
system.caches.MachineType.Directory.miss_latency_hist_seqr.issue_to_initial_request::max_bucket            9                       (Unspecified)
system.caches.MachineType.Directory.miss_latency_hist_seqr.issue_to_initial_request::samples            1                       (Unspecified)
system.caches.MachineType.Directory.miss_latency_hist_seqr.issue_to_initial_request::stdev          nan                       (Unspecified)
system.caches.MachineType.Directory.miss_latency_hist_seqr.issue_to_initial_request |           1    100.00%    100.00% |           0      0.00%    100.00% |           0      0.00%    100.00% |           0      0.00%    100.00% |           0      0.00%    100.00% |           0      0.00%    100.00% |           0      0.00%    100.00% |           0      0.00%    100.00% |           0      0.00%    100.00% |           0      0.00%    100.00% (Unspecified)
system.caches.MachineType.Directory.miss_latency_hist_seqr.issue_to_initial_request::total            1                       (Unspecified)
system.caches.MachineType.Directory.miss_latency_hist_seqr.initial_to_forward::bucket_size            1                       (Unspecified)
system.caches.MachineType.Directory.miss_latency_hist_seqr.initial_to_forward::max_bucket            9                       (Unspecified)
system.caches.MachineType.Directory.miss_latency_hist_seqr.initial_to_forward::samples            1                       (Unspecified)
system.caches.MachineType.Directory.miss_latency_hist_seqr.initial_to_forward::stdev          nan                       (Unspecified)
system.caches.MachineType.Directory.miss_latency_hist_seqr.initial_to_forward |           1    100.00%    100.00% |           0      0.00%    100.00% |           0      0.00%    100.00% |           0      0.00%    100.00% |           0      0.00%    100.00% |           0      0.00%    100.00% |           0      0.00%    100.00% |           0      0.00%    100.00% |           0      0.00%    100.00% |           0      0.00%    100.00% (Unspecified)
system.caches.MachineType.Directory.miss_latency_hist_seqr.initial_to_forward::total            1                       (Unspecified)
system.caches.MachineType.Directory.miss_latency_hist_seqr.forward_to_first_response::bucket_size            1                       (Unspecified)
system.caches.MachineType.Directory.miss_latency_hist_seqr.forward_to_first_response::max_bucket            9                       (Unspecified)
system.caches.MachineType.Directory.miss_latency_hist_seqr.forward_to_first_response::samples            1                       (Unspecified)
system.caches.MachineType.Directory.miss_latency_hist_seqr.forward_to_first_response::stdev          nan                       (Unspecified)
system.caches.MachineType.Directory.miss_latency_hist_seqr.forward_to_first_response |           1    100.00%    100.00% |           0      0.00%    100.00% |           0      0.00%    100.00% |           0      0.00%    100.00% |           0      0.00%    100.00% |           0      0.00%    100.00% |           0      0.00%    100.00% |           0      0.00%    100.00% |           0      0.00%    100.00% |           0      0.00%    100.00% (Unspecified)
system.caches.MachineType.Directory.miss_latency_hist_seqr.forward_to_first_response::total            1                       (Unspecified)
system.caches.MachineType.Directory.miss_latency_hist_seqr.first_response_to_completion::bucket_size            8                       (Unspecified)
system.caches.MachineType.Directory.miss_latency_hist_seqr.first_response_to_completion::max_bucket           79                       (Unspecified)
system.caches.MachineType.Directory.miss_latency_hist_seqr.first_response_to_completion::samples            1                       (Unspecified)
system.caches.MachineType.Directory.miss_latency_hist_seqr.first_response_to_completion::mean           73                       (Unspecified)
system.caches.MachineType.Directory.miss_latency_hist_seqr.first_response_to_completion::gmean    73.000000                       (Unspecified)
system.caches.MachineType.Directory.miss_latency_hist_seqr.first_response_to_completion::stdev          nan                       (Unspecified)
system.caches.MachineType.Directory.miss_latency_hist_seqr.first_response_to_completion |           0      0.00%      0.00% |           0      0.00%      0.00% |           0      0.00%      0.00% |           0      0.00%      0.00% |           0      0.00%      0.00% |           0      0.00%      0.00% |           0      0.00%      0.00% |           0      0.00%      0.00% |           0      0.00%      0.00% |           1    100.00%    100.00% (Unspecified)
system.caches.MachineType.Directory.miss_latency_hist_seqr.first_response_to_completion::total            1                       (Unspecified)
system.caches.MachineType.Directory.incomplete_times_seqr         3473                       (Unspecified)
system.caches.RequestType.LD.latency_hist_seqr::bucket_size           64                       (Unspecified)
system.caches.RequestType.LD.latency_hist_seqr::max_bucket          639                       (Unspecified)
system.caches.RequestType.LD.latency_hist_seqr::samples        30128                       (Unspecified)
system.caches.RequestType.LD.latency_hist_seqr::mean     5.426746                       (Unspecified)
system.caches.RequestType.LD.latency_hist_seqr::gmean     1.277092                       (Unspecified)
system.caches.RequestType.LD.latency_hist_seqr::stdev    20.739880                       (Unspecified)
system.caches.RequestType.LD.latency_hist_seqr |       29373     97.49%     97.49% |         560      1.86%     99.35% |         160      0.53%     99.88% |          10      0.03%     99.92% |          16      0.05%     99.97% |           6      0.02%     99.99% |           2      0.01%    100.00% |           1      0.00%    100.00% |           0      0.00%    100.00% |           0      0.00%    100.00% (Unspecified)
system.caches.RequestType.LD.latency_hist_seqr::total        30128                       (Unspecified)
system.caches.RequestType.LD.hit_latency_hist_seqr::bucket_size            4                       (Unspecified)
system.caches.RequestType.LD.hit_latency_hist_seqr::max_bucket           39                       (Unspecified)
system.caches.RequestType.LD.hit_latency_hist_seqr::samples        28405                       (Unspecified)
system.caches.RequestType.LD.hit_latency_hist_seqr::mean     1.002042                       (Unspecified)
system.caches.RequestType.LD.hit_latency_hist_seqr::gmean     1.000317                       (Unspecified)
system.caches.RequestType.LD.hit_latency_hist_seqr::stdev     0.200503                       (Unspecified)
system.caches.RequestType.LD.hit_latency_hist_seqr |       28402     99.99%     99.99% |           0      0.00%     99.99% |           0      0.00%     99.99% |           0      0.00%     99.99% |           2      0.01%    100.00% |           0      0.00%    100.00% |           1      0.00%    100.00% |           0      0.00%    100.00% |           0      0.00%    100.00% |           0      0.00%    100.00% (Unspecified)
system.caches.RequestType.LD.hit_latency_hist_seqr::total        28405                       (Unspecified)
system.caches.RequestType.LD.miss_latency_hist_seqr::bucket_size           64                       (Unspecified)
system.caches.RequestType.LD.miss_latency_hist_seqr::max_bucket          639                       (Unspecified)
system.caches.RequestType.LD.miss_latency_hist_seqr::samples         1723                       (Unspecified)
system.caches.RequestType.LD.miss_latency_hist_seqr::mean    78.371445                       (Unspecified)
system.caches.RequestType.LD.miss_latency_hist_seqr::gmean    71.632269                       (Unspecified)
system.caches.RequestType.LD.miss_latency_hist_seqr::stdev    43.334385                       (Unspecified)
system.caches.RequestType.LD.miss_latency_hist_seqr |         968     56.18%     56.18% |         560     32.50%     88.68% |         160      9.29%     97.97% |          10      0.58%     98.55% |          16      0.93%     99.48% |           6      0.35%     99.83% |           2      0.12%     99.94% |           1      0.06%    100.00% |           0      0.00%    100.00% |           0      0.00%    100.00% (Unspecified)
system.caches.RequestType.LD.miss_latency_hist_seqr::total         1723                       (Unspecified)
system.caches.RequestType.ST.latency_hist_seqr::bucket_size           64                       (Unspecified)
system.caches.RequestType.ST.latency_hist_seqr::max_bucket          639                       (Unspecified)
system.caches.RequestType.ST.latency_hist_seqr::samples        14447                       (Unspecified)
system.caches.RequestType.ST.latency_hist_seqr::mean     3.776355                       (Unspecified)
system.caches.RequestType.ST.latency_hist_seqr::gmean     1.181031                       (Unspecified)
system.caches.RequestType.ST.latency_hist_seqr::stdev    15.772420                       (Unspecified)
system.caches.RequestType.ST.latency_hist_seqr |       14290     98.91%     98.91% |         105      0.73%     99.64% |          43      0.30%     99.94% |           3      0.02%     99.96% |           5      0.03%     99.99% |           1      0.01%    100.00% |           0      0.00%    100.00% |           0      0.00%    100.00% |           0      0.00%    100.00% |           0      0.00%    100.00% (Unspecified)
system.caches.RequestType.ST.latency_hist_seqr::total        14447                       (Unspecified)
system.caches.RequestType.ST.hit_latency_hist_seqr::bucket_size           16                       (Unspecified)
system.caches.RequestType.ST.hit_latency_hist_seqr::max_bucket          159                       (Unspecified)
system.caches.RequestType.ST.hit_latency_hist_seqr::samples        13896                       (Unspecified)
system.caches.RequestType.ST.hit_latency_hist_seqr::mean     1.026195                       (Unspecified)
system.caches.RequestType.ST.hit_latency_hist_seqr::gmean     1.005931                       (Unspecified)
system.caches.RequestType.ST.hit_latency_hist_seqr::stdev     1.051823                       (Unspecified)
system.caches.RequestType.ST.hit_latency_hist_seqr |       13890     99.96%     99.96% |           2      0.01%     99.97% |           1      0.01%     99.98% |           2      0.01%     99.99% |           0      0.00%     99.99% |           1      0.01%    100.00% |           0      0.00%    100.00% |           0      0.00%    100.00% |           0      0.00%    100.00% |           0      0.00%    100.00% (Unspecified)
system.caches.RequestType.ST.hit_latency_hist_seqr::total        13896                       (Unspecified)
system.caches.RequestType.ST.miss_latency_hist_seqr::bucket_size           64                       (Unspecified)
system.caches.RequestType.ST.miss_latency_hist_seqr::max_bucket          639                       (Unspecified)
system.caches.RequestType.ST.miss_latency_hist_seqr::samples          551                       (Unspecified)
system.caches.RequestType.ST.miss_latency_hist_seqr::mean    73.134301                       (Unspecified)
system.caches.RequestType.ST.miss_latency_hist_seqr::gmean    67.592541                       (Unspecified)
system.caches.RequestType.ST.miss_latency_hist_seqr::stdev    38.674588                       (Unspecified)
system.caches.RequestType.ST.miss_latency_hist_seqr |         395     71.69%     71.69% |         104     18.87%     90.56% |          43      7.80%     98.37% |           3      0.54%     98.91% |           5      0.91%     99.82% |           1      0.18%    100.00% |           0      0.00%    100.00% |           0      0.00%    100.00% |           0      0.00%    100.00% |           0      0.00%    100.00% (Unspecified)
system.caches.RequestType.ST.miss_latency_hist_seqr::total          551                       (Unspecified)
system.caches.RequestType.IFETCH.latency_hist_seqr::bucket_size           64                       (Unspecified)
system.caches.RequestType.IFETCH.latency_hist_seqr::max_bucket          639                       (Unspecified)
system.caches.RequestType.IFETCH.latency_hist_seqr::samples        24738                       (Unspecified)
system.caches.RequestType.IFETCH.latency_hist_seqr::mean     4.343965                       (Unspecified)
system.caches.RequestType.IFETCH.latency_hist_seqr::gmean     1.220972                       (Unspecified)
system.caches.RequestType.IFETCH.latency_hist_seqr::stdev    17.421067                       (Unspecified)
system.caches.RequestType.IFETCH.latency_hist_seqr |       24381     98.56%     98.56% |         265      1.07%     99.63% |          74      0.30%     99.93% |           2      0.01%     99.94% |           8      0.03%     99.97% |           5      0.02%     99.99% |           2      0.01%    100.00% |           1      0.00%    100.00% |           0      0.00%    100.00% |           0      0.00%    100.00% (Unspecified)
system.caches.RequestType.IFETCH.latency_hist_seqr::total        24738                       (Unspecified)
system.caches.RequestType.IFETCH.hit_latency_hist_seqr::bucket_size            1                       (Unspecified)
system.caches.RequestType.IFETCH.hit_latency_hist_seqr::max_bucket            9                       (Unspecified)
system.caches.RequestType.IFETCH.hit_latency_hist_seqr::samples        23555                       (Unspecified)
system.caches.RequestType.IFETCH.hit_latency_hist_seqr::mean            1                       (Unspecified)
system.caches.RequestType.IFETCH.hit_latency_hist_seqr::gmean            1                       (Unspecified)
system.caches.RequestType.IFETCH.hit_latency_hist_seqr |           0      0.00%      0.00% |       23555    100.00%    100.00% |           0      0.00%    100.00% |           0      0.00%    100.00% |           0      0.00%    100.00% |           0      0.00%    100.00% |           0      0.00%    100.00% |           0      0.00%    100.00% |           0      0.00%    100.00% |           0      0.00%    100.00% (Unspecified)
system.caches.RequestType.IFETCH.hit_latency_hist_seqr::total        23555                       (Unspecified)
system.caches.RequestType.IFETCH.miss_latency_hist_seqr::bucket_size           64                       (Unspecified)
system.caches.RequestType.IFETCH.miss_latency_hist_seqr::max_bucket          639                       (Unspecified)
system.caches.RequestType.IFETCH.miss_latency_hist_seqr::samples         1183                       (Unspecified)
system.caches.RequestType.IFETCH.miss_latency_hist_seqr::mean    70.926458                       (Unspecified)
system.caches.RequestType.IFETCH.miss_latency_hist_seqr::gmean    65.031214                       (Unspecified)
system.caches.RequestType.IFETCH.miss_latency_hist_seqr::stdev    41.130561                       (Unspecified)
system.caches.RequestType.IFETCH.miss_latency_hist_seqr |         826     69.82%     69.82% |         265     22.40%     92.22% |          74      6.26%     98.48% |           2      0.17%     98.65% |           8      0.68%     99.32% |           5      0.42%     99.75% |           2      0.17%     99.92% |           1      0.08%    100.00% |           0      0.00%    100.00% |           0      0.00%    100.00% (Unspecified)
system.caches.RequestType.IFETCH.miss_latency_hist_seqr::total         1183                       (Unspecified)
system.caches.RequestType.RMW_Read.latency_hist_seqr::bucket_size           16                       (Unspecified)
system.caches.RequestType.RMW_Read.latency_hist_seqr::max_bucket          159                       (Unspecified)
system.caches.RequestType.RMW_Read.latency_hist_seqr::samples          428                       (Unspecified)
system.caches.RequestType.RMW_Read.latency_hist_seqr::mean     5.191589                       (Unspecified)
system.caches.RequestType.RMW_Read.latency_hist_seqr::gmean     1.249189                       (Unspecified)
system.caches.RequestType.RMW_Read.latency_hist_seqr::stdev    19.713896                       (Unspecified)
system.caches.RequestType.RMW_Read.latency_hist_seqr |         406     94.86%     94.86% |           0      0.00%     94.86% |           2      0.47%     95.33% |           7      1.64%     96.96% |           3      0.70%     97.66% |           5      1.17%     98.83% |           0      0.00%     98.83% |           0      0.00%     98.83% |           3      0.70%     99.53% |           2      0.47%    100.00% (Unspecified)
system.caches.RequestType.RMW_Read.latency_hist_seqr::total          428                       (Unspecified)
system.caches.RequestType.RMW_Read.hit_latency_hist_seqr::bucket_size           16                       (Unspecified)
system.caches.RequestType.RMW_Read.hit_latency_hist_seqr::max_bucket          159                       (Unspecified)
system.caches.RequestType.RMW_Read.hit_latency_hist_seqr::samples          411                       (Unspecified)
system.caches.RequestType.RMW_Read.hit_latency_hist_seqr::mean     2.021898                       (Unspecified)
system.caches.RequestType.RMW_Read.hit_latency_hist_seqr::gmean     1.053065                       (Unspecified)
system.caches.RequestType.RMW_Read.hit_latency_hist_seqr::stdev    10.815617                       (Unspecified)
system.caches.RequestType.RMW_Read.hit_latency_hist_seqr |         406     98.78%     98.78% |           0      0.00%     98.78% |           2      0.49%     99.27% |           1      0.24%     99.51% |           0      0.00%     99.51% |           0      0.00%     99.51% |           0      0.00%     99.51% |           0      0.00%     99.51% |           1      0.24%     99.76% |           1      0.24%    100.00% (Unspecified)
system.caches.RequestType.RMW_Read.hit_latency_hist_seqr::total          411                       (Unspecified)
system.caches.RequestType.RMW_Read.miss_latency_hist_seqr::bucket_size           16                       (Unspecified)
system.caches.RequestType.RMW_Read.miss_latency_hist_seqr::max_bucket          159                       (Unspecified)
system.caches.RequestType.RMW_Read.miss_latency_hist_seqr::samples           17                       (Unspecified)
system.caches.RequestType.RMW_Read.miss_latency_hist_seqr::mean    81.823529                       (Unspecified)
system.caches.RequestType.RMW_Read.miss_latency_hist_seqr::gmean    77.601369                       (Unspecified)
system.caches.RequestType.RMW_Read.miss_latency_hist_seqr::stdev    29.608350                       (Unspecified)
system.caches.RequestType.RMW_Read.miss_latency_hist_seqr |           0      0.00%      0.00% |           0      0.00%      0.00% |           0      0.00%      0.00% |           6     35.29%     35.29% |           3     17.65%     52.94% |           5     29.41%     82.35% |           0      0.00%     82.35% |           0      0.00%     82.35% |           2     11.76%     94.12% |           1      5.88%    100.00% (Unspecified)
system.caches.RequestType.RMW_Read.miss_latency_hist_seqr::total           17                       (Unspecified)
system.caches.RequestTypeMachineType.LD.Directory.miss_type_mach_latency_hist_seqr::bucket_size           64                       (Unspecified)
system.caches.RequestTypeMachineType.LD.Directory.miss_type_mach_latency_hist_seqr::max_bucket          639                       (Unspecified)
system.caches.RequestTypeMachineType.LD.Directory.miss_type_mach_latency_hist_seqr::samples         1723                       (Unspecified)
system.caches.RequestTypeMachineType.LD.Directory.miss_type_mach_latency_hist_seqr::mean    78.371445                       (Unspecified)
system.caches.RequestTypeMachineType.LD.Directory.miss_type_mach_latency_hist_seqr::gmean    71.632269                       (Unspecified)
system.caches.RequestTypeMachineType.LD.Directory.miss_type_mach_latency_hist_seqr::stdev    43.334385                       (Unspecified)
system.caches.RequestTypeMachineType.LD.Directory.miss_type_mach_latency_hist_seqr |         968     56.18%     56.18% |         560     32.50%     88.68% |         160      9.29%     97.97% |          10      0.58%     98.55% |          16      0.93%     99.48% |           6      0.35%     99.83% |           2      0.12%     99.94% |           1      0.06%    100.00% |           0      0.00%    100.00% |           0      0.00%    100.00% (Unspecified)
system.caches.RequestTypeMachineType.LD.Directory.miss_type_mach_latency_hist_seqr::total         1723                       (Unspecified)
system.caches.RequestTypeMachineType.ST.Directory.miss_type_mach_latency_hist_seqr::bucket_size           64                       (Unspecified)
system.caches.RequestTypeMachineType.ST.Directory.miss_type_mach_latency_hist_seqr::max_bucket          639                       (Unspecified)
system.caches.RequestTypeMachineType.ST.Directory.miss_type_mach_latency_hist_seqr::samples          551                       (Unspecified)
system.caches.RequestTypeMachineType.ST.Directory.miss_type_mach_latency_hist_seqr::mean    73.134301                       (Unspecified)
system.caches.RequestTypeMachineType.ST.Directory.miss_type_mach_latency_hist_seqr::gmean    67.592541                       (Unspecified)
system.caches.RequestTypeMachineType.ST.Directory.miss_type_mach_latency_hist_seqr::stdev    38.674588                       (Unspecified)
system.caches.RequestTypeMachineType.ST.Directory.miss_type_mach_latency_hist_seqr |         395     71.69%     71.69% |         104     18.87%     90.56% |          43      7.80%     98.37% |           3      0.54%     98.91% |           5      0.91%     99.82% |           1      0.18%    100.00% |           0      0.00%    100.00% |           0      0.00%    100.00% |           0      0.00%    100.00% |           0      0.00%    100.00% (Unspecified)
system.caches.RequestTypeMachineType.ST.Directory.miss_type_mach_latency_hist_seqr::total          551                       (Unspecified)
system.caches.RequestTypeMachineType.IFETCH.Directory.miss_type_mach_latency_hist_seqr::bucket_size           64                       (Unspecified)
system.caches.RequestTypeMachineType.IFETCH.Directory.miss_type_mach_latency_hist_seqr::max_bucket          639                       (Unspecified)
system.caches.RequestTypeMachineType.IFETCH.Directory.miss_type_mach_latency_hist_seqr::samples         1183                       (Unspecified)
system.caches.RequestTypeMachineType.IFETCH.Directory.miss_type_mach_latency_hist_seqr::mean    70.926458                       (Unspecified)
system.caches.RequestTypeMachineType.IFETCH.Directory.miss_type_mach_latency_hist_seqr::gmean    65.031214                       (Unspecified)
system.caches.RequestTypeMachineType.IFETCH.Directory.miss_type_mach_latency_hist_seqr::stdev    41.130561                       (Unspecified)
system.caches.RequestTypeMachineType.IFETCH.Directory.miss_type_mach_latency_hist_seqr |         826     69.82%     69.82% |         265     22.40%     92.22% |          74      6.26%     98.48% |           2      0.17%     98.65% |           8      0.68%     99.32% |           5      0.42%     99.75% |           2      0.17%     99.92% |           1      0.08%    100.00% |           0      0.00%    100.00% |           0      0.00%    100.00% (Unspecified)
system.caches.RequestTypeMachineType.IFETCH.Directory.miss_type_mach_latency_hist_seqr::total         1183                       (Unspecified)
system.caches.RequestTypeMachineType.RMW_Read.Directory.miss_type_mach_latency_hist_seqr::bucket_size           16                       (Unspecified)
system.caches.RequestTypeMachineType.RMW_Read.Directory.miss_type_mach_latency_hist_seqr::max_bucket          159                       (Unspecified)
system.caches.RequestTypeMachineType.RMW_Read.Directory.miss_type_mach_latency_hist_seqr::samples           17                       (Unspecified)
system.caches.RequestTypeMachineType.RMW_Read.Directory.miss_type_mach_latency_hist_seqr::mean    81.823529                       (Unspecified)
system.caches.RequestTypeMachineType.RMW_Read.Directory.miss_type_mach_latency_hist_seqr::gmean    77.601369                       (Unspecified)
system.caches.RequestTypeMachineType.RMW_Read.Directory.miss_type_mach_latency_hist_seqr::stdev    29.608350                       (Unspecified)
system.caches.RequestTypeMachineType.RMW_Read.Directory.miss_type_mach_latency_hist_seqr |           0      0.00%      0.00% |           0      0.00%      0.00% |           0      0.00%      0.00% |           6     35.29%     35.29% |           3     17.65%     52.94% |           5     29.41%     82.35% |           0      0.00%     82.35% |           0      0.00%     82.35% |           2     11.76%     94.12% |           1      5.88%    100.00% (Unspecified)
system.caches.RequestTypeMachineType.RMW_Read.Directory.miss_type_mach_latency_hist_seqr::total           17                       (Unspecified)
system.caches.controllers0.delayHistogram::samples         6436                       # delay_histogram (Unspecified)
system.caches.controllers0.delayHistogram::mean     0.066812                       # delay_histogram (Unspecified)
system.caches.controllers0.delayHistogram::stdev     0.609593                       # delay_histogram (Unspecified)
system.caches.controllers0.delayHistogram::0-1         6345     98.59%     98.59% # delay_histogram (Unspecified)
system.caches.controllers0.delayHistogram::2-3           23      0.36%     98.94% # delay_histogram (Unspecified)
system.caches.controllers0.delayHistogram::4-5           26      0.40%     99.35% # delay_histogram (Unspecified)
system.caches.controllers0.delayHistogram::6-7           29      0.45%     99.80% # delay_histogram (Unspecified)
system.caches.controllers0.delayHistogram::8-9           12      0.19%     99.98% # delay_histogram (Unspecified)
system.caches.controllers0.delayHistogram::10-11            1      0.02%    100.00% # delay_histogram (Unspecified)
system.caches.controllers0.delayHistogram::total         6436                       # delay_histogram (Unspecified)
system.caches.controllers0.cacheMemory.m_demand_hits        66267                       # Number of cache demand hits (Unspecified)
system.caches.controllers0.cacheMemory.m_demand_misses         3475                       # Number of cache demand misses (Unspecified)
system.caches.controllers0.cacheMemory.m_demand_accesses        69742                       # Number of cache demand accesses (Unspecified)
system.caches.controllers0.forwardToCache.m_buf_msgs     0.013514                       # Average number of messages in buffer (Unspecified)
system.caches.controllers0.forwardToCache.m_stall_time  4824.270437                       # Average number of cycles messages are stalled in this MB (Unspecified)
system.caches.controllers0.mandatoryQueue.m_buf_msgs     0.318750                       # Average number of messages in buffer (Unspecified)
system.caches.controllers0.mandatoryQueue.m_stall_time  1004.872885                       # Average number of cycles messages are stalled in this MB (Unspecified)
system.caches.controllers0.power_state.pwrStateResidencyTicks::UNDEFINED    219172000                       # Cumulative time (in ticks) in various power states (Tick)
system.caches.controllers0.requestFromCache.m_buf_msgs     0.058730                       # Average number of messages in buffer (Unspecified)
system.caches.controllers0.requestFromCache.m_stall_time  1999.972624                       # Average number of cycles messages are stalled in this MB (Unspecified)
system.caches.controllers0.responseToCache.m_buf_msgs     0.015851                       # Average number of messages in buffer (Unspecified)
system.caches.controllers0.responseToCache.m_stall_time  4999.516362                       # Average number of cycles messages are stalled in this MB (Unspecified)
system.caches.controllers1.forwardFromDir.m_buf_msgs     0.013514                       # Average number of messages in buffer (Unspecified)
system.caches.controllers1.forwardFromDir.m_stall_time   956.855803                       # Average number of cycles messages are stalled in this MB (Unspecified)
system.caches.controllers1.power_state.pwrStateResidencyTicks::UNDEFINED    219172000                       # Cumulative time (in ticks) in various power states (Tick)
system.caches.controllers1.requestToDir.m_buf_msgs     0.029365                       # Average number of messages in buffer (Unspecified)
system.caches.controllers1.requestToDir.m_stall_time  9753.198416                       # Average number of cycles messages are stalled in this MB (Unspecified)
system.caches.controllers1.requestToMemory.m_buf_msgs     0.029392                       # Average number of messages in buffer (Unspecified)
system.caches.controllers1.requestToMemory.m_stall_time  1000.479076                       # Average number of cycles messages are stalled in this MB (Unspecified)
system.caches.controllers1.responseFromDir.m_buf_msgs     0.015851                       # Average number of messages in buffer (Unspecified)
system.caches.controllers1.responseFromDir.m_stall_time   999.685179                       # Average number of cycles messages are stalled in this MB (Unspecified)
system.caches.controllers1.responseFromMemory.m_buf_msgs     0.034854                       # Average number of messages in buffer (Unspecified)
system.caches.controllers1.responseFromMemory.m_stall_time   999.689741                       # Average number of cycles messages are stalled in this MB (Unspecified)
system.caches.network.msg_count.Control          6948                       (Unspecified)
system.caches.network.msg_byte.Control          55584                       (Unspecified)
system.caches.network.msg_count.Data             5924                       (Unspecified)
system.caches.network.msg_byte.Data            426528                       (Unspecified)
system.caches.network.msg_count.Response_Data         6948                       (Unspecified)
system.caches.network.msg_byte.Response_Data       500256                       (Unspecified)
system.caches.network.msg_count.Writeback_Control         5924                       (Unspecified)
system.caches.network.msg_byte.Writeback_Control        47392                       (Unspecified)
system.caches.network.int_link_buffers2.m_buf_msgs     0.029365                       # Average number of messages in buffer (Unspecified)
system.caches.network.int_link_buffers2.m_stall_time  7753.362671                       # Average number of cycles messages are stalled in this MB (Unspecified)
system.caches.network.int_link_buffers8.m_buf_msgs     0.013514                       # Average number of messages in buffer (Unspecified)
system.caches.network.int_link_buffers8.m_stall_time  2910.622708                       # Average number of cycles messages are stalled in this MB (Unspecified)
system.caches.network.int_link_buffers9.m_buf_msgs     0.015851                       # Average number of messages in buffer (Unspecified)
system.caches.network.int_link_buffers9.m_stall_time  3000.209881                       # Average number of cycles messages are stalled in this MB (Unspecified)
system.caches.network.power_state.pwrStateResidencyTicks::UNDEFINED    219172000                       # Cumulative time (in ticks) in various power states (Tick)
system.caches.network.routers0.percent_links_utilized     7.341266                       (Unspecified)
system.caches.network.routers0.msg_count.Control::2         3474                       (Unspecified)
system.caches.network.routers0.msg_bytes.Control::2        27792                       (Unspecified)
system.caches.network.routers0.msg_count.Data::2         2962                       (Unspecified)
system.caches.network.routers0.msg_bytes.Data::2       213264                       (Unspecified)
system.caches.network.routers0.msg_count.Response_Data::4         3474                       (Unspecified)
system.caches.network.routers0.msg_bytes.Response_Data::4       250128                       (Unspecified)
system.caches.network.routers0.msg_count.Writeback_Control::3         2962                       (Unspecified)
system.caches.network.routers0.msg_bytes.Writeback_Control::3        23696                       (Unspecified)
system.caches.network.routers0.port_buffers3.m_buf_msgs     0.013514                       # Average number of messages in buffer (Unspecified)
system.caches.network.routers0.port_buffers3.m_stall_time  3867.451135                       # Average number of cycles messages are stalled in this MB (Unspecified)
system.caches.network.routers0.port_buffers4.m_buf_msgs     0.015851                       # Average number of messages in buffer (Unspecified)
system.caches.network.routers0.port_buffers4.m_stall_time  3999.867684                       # Average number of cycles messages are stalled in this MB (Unspecified)
system.caches.network.routers0.port_buffers7.m_buf_msgs     0.095496                       # Average number of messages in buffer (Unspecified)
system.caches.network.routers0.port_buffers7.m_stall_time  6753.431110                       # Average number of cycles messages are stalled in this MB (Unspecified)
system.caches.network.routers0.power_state.pwrStateResidencyTicks::UNDEFINED    219172000                       # Cumulative time (in ticks) in various power states (Tick)
system.caches.network.routers0.throttle00.link_utilization     7.808479                       (Unspecified)
system.caches.network.routers0.throttle00.msg_count.Response_Data::4         3474                       (Unspecified)
system.caches.network.routers0.throttle00.msg_bytes.Response_Data::4       250128                       (Unspecified)
system.caches.network.routers0.throttle00.msg_count.Writeback_Control::3         2962                       (Unspecified)
system.caches.network.routers0.throttle00.msg_bytes.Writeback_Control::3        23696                       (Unspecified)
system.caches.network.routers0.throttle01.link_utilization     6.874053                       (Unspecified)
system.caches.network.routers0.throttle01.msg_count.Control::2         3474                       (Unspecified)
system.caches.network.routers0.throttle01.msg_bytes.Control::2        27792                       (Unspecified)
system.caches.network.routers0.throttle01.msg_count.Data::2         2962                       (Unspecified)
system.caches.network.routers0.throttle01.msg_bytes.Data::2       213264                       (Unspecified)
system.caches.network.routers1.percent_links_utilized     7.341266                       (Unspecified)
system.caches.network.routers1.msg_count.Control::2         3474                       (Unspecified)
system.caches.network.routers1.msg_bytes.Control::2        27792                       (Unspecified)
system.caches.network.routers1.msg_count.Data::2         2962                       (Unspecified)
system.caches.network.routers1.msg_bytes.Data::2       213264                       (Unspecified)
system.caches.network.routers1.msg_count.Response_Data::4         3474                       (Unspecified)
system.caches.network.routers1.msg_bytes.Response_Data::4       250128                       (Unspecified)
system.caches.network.routers1.msg_count.Writeback_Control::3         2962                       (Unspecified)
system.caches.network.routers1.msg_bytes.Writeback_Control::3        23696                       (Unspecified)
system.caches.network.routers1.port_buffers2.m_buf_msgs     0.029365                       # Average number of messages in buffer (Unspecified)
system.caches.network.routers1.port_buffers2.m_stall_time  8753.285106                       # Average number of cycles messages are stalled in this MB (Unspecified)
system.caches.network.routers1.port_buffers6.m_buf_msgs     0.014459                       # Average number of messages in buffer (Unspecified)
system.caches.network.routers1.port_buffers6.m_stall_time  1953.785155                       # Average number of cycles messages are stalled in this MB (Unspecified)
system.caches.network.routers1.port_buffers7.m_buf_msgs     0.015887                       # Average number of messages in buffer (Unspecified)
system.caches.network.routers1.port_buffers7.m_stall_time  2000.542953                       # Average number of cycles messages are stalled in this MB (Unspecified)
system.caches.network.routers1.power_state.pwrStateResidencyTicks::UNDEFINED    219172000                       # Cumulative time (in ticks) in various power states (Tick)
system.caches.network.routers1.throttle00.link_utilization     6.874053                       (Unspecified)
system.caches.network.routers1.throttle00.msg_count.Control::2         3474                       (Unspecified)
system.caches.network.routers1.throttle00.msg_bytes.Control::2        27792                       (Unspecified)
system.caches.network.routers1.throttle00.msg_count.Data::2         2962                       (Unspecified)
system.caches.network.routers1.throttle00.msg_bytes.Data::2       213264                       (Unspecified)
system.caches.network.routers1.throttle01.link_utilization     7.808479                       (Unspecified)
system.caches.network.routers1.throttle01.msg_count.Response_Data::4         3474                       (Unspecified)
system.caches.network.routers1.throttle01.msg_bytes.Response_Data::4       250128                       (Unspecified)
system.caches.network.routers1.throttle01.msg_count.Writeback_Control::3         2962                       (Unspecified)
system.caches.network.routers1.throttle01.msg_bytes.Writeback_Control::3        23696                       (Unspecified)
system.caches.power_state.pwrStateResidencyTicks::UNDEFINED    219172000                       # Cumulative time (in ticks) in various power states (Tick)
system.caches.sequencers.power_state.pwrStateResidencyTicks::UNDEFINED    219172000                       # Cumulative time (in ticks) in various power states (Tick)
system.caches.sys_port_proxy.power_state.pwrStateResidencyTicks::UNDEFINED    219172000                       # Cumulative time (in ticks) in various power states (Tick)
system.clk_domain.clock                          1000                       # Clock period in ticks (Tick)
system.clk_domain.voltage_domain.voltage            1                       # Voltage in Volts (Volt)
system.cpu.numCycles                           219173                       # Number of cpu cycles simulated (Cycle)
system.cpu.numWorkItemsStarted                      0                       # Number of work items this cpu started (Count)
system.cpu.numWorkItemsCompleted                    0                       # Number of work items this cpu completed (Count)
system.cpu.instsAdded                          340186                       # Number of instructions added to the IQ (excludes non-spec) (Count)
system.cpu.nonSpecInstsAdded                        5                       # Number of non-speculative instructions added to the IQ (Count)
system.cpu.instsIssued                         303736                       # Number of instructions issued (Count)
system.cpu.squashedInstsIssued                    325                       # Number of squashed instructions issued (Count)
system.cpu.squashedInstsExamined               112794                       # Number of squashed instructions iterated over during squash; mainly for profiling (Count)
system.cpu.squashedOperandsExamined            159050                       # Number of squashed operands that are examined and possibly removed from graph (Count)
system.cpu.squashedNonSpecRemoved                   4                       # Number of squashed non-spec instructions that were removed (Count)
system.cpu.numIssuedDist::samples              188203                       # Number of insts issued each cycle (Count)
system.cpu.numIssuedDist::mean               1.613874                       # Number of insts issued each cycle (Count)
system.cpu.numIssuedDist::stdev              2.296317                       # Number of insts issued each cycle (Count)
system.cpu.numIssuedDist::underflows                0      0.00%      0.00% # Number of insts issued each cycle (Count)
system.cpu.numIssuedDist::0                    107135     56.93%     56.93% # Number of insts issued each cycle (Count)
system.cpu.numIssuedDist::1                     14262      7.58%     64.50% # Number of insts issued each cycle (Count)
system.cpu.numIssuedDist::2                     13098      6.96%     71.46% # Number of insts issued each cycle (Count)
system.cpu.numIssuedDist::3                     12318      6.55%     78.01% # Number of insts issued each cycle (Count)
system.cpu.numIssuedDist::4                     11912      6.33%     84.34% # Number of insts issued each cycle (Count)
system.cpu.numIssuedDist::5                     11051      5.87%     90.21% # Number of insts issued each cycle (Count)
system.cpu.numIssuedDist::6                      9404      5.00%     95.21% # Number of insts issued each cycle (Count)
system.cpu.numIssuedDist::7                      5187      2.76%     97.96% # Number of insts issued each cycle (Count)
system.cpu.numIssuedDist::8                      3836      2.04%    100.00% # Number of insts issued each cycle (Count)
system.cpu.numIssuedDist::overflows                 0      0.00%    100.00% # Number of insts issued each cycle (Count)
system.cpu.numIssuedDist::min_value                 0                       # Number of insts issued each cycle (Count)
system.cpu.numIssuedDist::max_value                 8                       # Number of insts issued each cycle (Count)
system.cpu.numIssuedDist::total                188203                       # Number of insts issued each cycle (Count)
system.cpu.statFuBusy::No_OpClass                   0      0.00%      0.00% # attempts to use FU when none available (Count)
system.cpu.statFuBusy::IntAlu                    3293     71.87%     71.87% # attempts to use FU when none available (Count)
system.cpu.statFuBusy::IntMult                      0      0.00%     71.87% # attempts to use FU when none available (Count)
system.cpu.statFuBusy::IntDiv                       0      0.00%     71.87% # attempts to use FU when none available (Count)
system.cpu.statFuBusy::FloatAdd                     0      0.00%     71.87% # attempts to use FU when none available (Count)
system.cpu.statFuBusy::FloatCmp                     0      0.00%     71.87% # attempts to use FU when none available (Count)
system.cpu.statFuBusy::FloatCvt                     0      0.00%     71.87% # attempts to use FU when none available (Count)
system.cpu.statFuBusy::FloatMult                    0      0.00%     71.87% # attempts to use FU when none available (Count)
system.cpu.statFuBusy::FloatMultAcc                 0      0.00%     71.87% # attempts to use FU when none available (Count)
system.cpu.statFuBusy::FloatDiv                     0      0.00%     71.87% # attempts to use FU when none available (Count)
system.cpu.statFuBusy::FloatMisc                    0      0.00%     71.87% # attempts to use FU when none available (Count)
system.cpu.statFuBusy::FloatSqrt                    0      0.00%     71.87% # attempts to use FU when none available (Count)
system.cpu.statFuBusy::SimdAdd                      0      0.00%     71.87% # attempts to use FU when none available (Count)
system.cpu.statFuBusy::SimdAddAcc                   0      0.00%     71.87% # attempts to use FU when none available (Count)
system.cpu.statFuBusy::SimdAlu                     24      0.52%     72.39% # attempts to use FU when none available (Count)
system.cpu.statFuBusy::SimdCmp                      0      0.00%     72.39% # attempts to use FU when none available (Count)
system.cpu.statFuBusy::SimdCvt                      7      0.15%     72.54% # attempts to use FU when none available (Count)
system.cpu.statFuBusy::SimdMisc                     1      0.02%     72.57% # attempts to use FU when none available (Count)
system.cpu.statFuBusy::SimdMult                     0      0.00%     72.57% # attempts to use FU when none available (Count)
system.cpu.statFuBusy::SimdMultAcc                  0      0.00%     72.57% # attempts to use FU when none available (Count)
system.cpu.statFuBusy::SimdShift                   18      0.39%     72.96% # attempts to use FU when none available (Count)
system.cpu.statFuBusy::SimdShiftAcc                 0      0.00%     72.96% # attempts to use FU when none available (Count)
system.cpu.statFuBusy::SimdDiv                      0      0.00%     72.96% # attempts to use FU when none available (Count)
system.cpu.statFuBusy::SimdSqrt                     0      0.00%     72.96% # attempts to use FU when none available (Count)
system.cpu.statFuBusy::SimdFloatAdd                 0      0.00%     72.96% # attempts to use FU when none available (Count)
system.cpu.statFuBusy::SimdFloatAlu                 0      0.00%     72.96% # attempts to use FU when none available (Count)
system.cpu.statFuBusy::SimdFloatCmp                 0      0.00%     72.96% # attempts to use FU when none available (Count)
system.cpu.statFuBusy::SimdFloatCvt                 0      0.00%     72.96% # attempts to use FU when none available (Count)
system.cpu.statFuBusy::SimdFloatDiv                 0      0.00%     72.96% # attempts to use FU when none available (Count)
system.cpu.statFuBusy::SimdFloatMisc                0      0.00%     72.96% # attempts to use FU when none available (Count)
system.cpu.statFuBusy::SimdFloatMult                0      0.00%     72.96% # attempts to use FU when none available (Count)
system.cpu.statFuBusy::SimdFloatMultAcc             0      0.00%     72.96% # attempts to use FU when none available (Count)
system.cpu.statFuBusy::SimdFloatSqrt                0      0.00%     72.96% # attempts to use FU when none available (Count)
system.cpu.statFuBusy::SimdReduceAdd                0      0.00%     72.96% # attempts to use FU when none available (Count)
system.cpu.statFuBusy::SimdReduceAlu                0      0.00%     72.96% # attempts to use FU when none available (Count)
system.cpu.statFuBusy::SimdReduceCmp                0      0.00%     72.96% # attempts to use FU when none available (Count)
system.cpu.statFuBusy::SimdFloatReduceAdd            0      0.00%     72.96% # attempts to use FU when none available (Count)
system.cpu.statFuBusy::SimdFloatReduceCmp            0      0.00%     72.96% # attempts to use FU when none available (Count)
system.cpu.statFuBusy::SimdAes                      0      0.00%     72.96% # attempts to use FU when none available (Count)
system.cpu.statFuBusy::SimdAesMix                   0      0.00%     72.96% # attempts to use FU when none available (Count)
system.cpu.statFuBusy::SimdSha1Hash                 0      0.00%     72.96% # attempts to use FU when none available (Count)
system.cpu.statFuBusy::SimdSha1Hash2                0      0.00%     72.96% # attempts to use FU when none available (Count)
system.cpu.statFuBusy::SimdSha256Hash               0      0.00%     72.96% # attempts to use FU when none available (Count)
system.cpu.statFuBusy::SimdSha256Hash2              0      0.00%     72.96% # attempts to use FU when none available (Count)
system.cpu.statFuBusy::SimdShaSigma2                0      0.00%     72.96% # attempts to use FU when none available (Count)
system.cpu.statFuBusy::SimdShaSigma3                0      0.00%     72.96% # attempts to use FU when none available (Count)
system.cpu.statFuBusy::SimdPredAlu                  0      0.00%     72.96% # attempts to use FU when none available (Count)
system.cpu.statFuBusy::MemRead                    765     16.70%     89.66% # attempts to use FU when none available (Count)
system.cpu.statFuBusy::MemWrite                   436      9.52%     99.17% # attempts to use FU when none available (Count)
system.cpu.statFuBusy::FloatMemRead                13      0.28%     99.45% # attempts to use FU when none available (Count)
system.cpu.statFuBusy::FloatMemWrite               25      0.55%    100.00% # attempts to use FU when none available (Count)
system.cpu.statFuBusy::IprAccess                    0      0.00%    100.00% # attempts to use FU when none available (Count)
system.cpu.statFuBusy::InstPrefetch                 0      0.00%    100.00% # attempts to use FU when none available (Count)
system.cpu.statIssuedInstType_0::No_OpClass         3390      1.12%      1.12% # Number of instructions issued per FU type, per thread (Count)
system.cpu.statIssuedInstType_0::IntAlu        226099     74.44%     75.56% # Number of instructions issued per FU type, per thread (Count)
system.cpu.statIssuedInstType_0::IntMult           23      0.01%     75.56% # Number of instructions issued per FU type, per thread (Count)
system.cpu.statIssuedInstType_0::IntDiv          1989      0.65%     76.22% # Number of instructions issued per FU type, per thread (Count)
system.cpu.statIssuedInstType_0::FloatAdd          656      0.22%     76.43% # Number of instructions issued per FU type, per thread (Count)
system.cpu.statIssuedInstType_0::FloatCmp            0      0.00%     76.43% # Number of instructions issued per FU type, per thread (Count)
system.cpu.statIssuedInstType_0::FloatCvt            0      0.00%     76.43% # Number of instructions issued per FU type, per thread (Count)
system.cpu.statIssuedInstType_0::FloatMult            0      0.00%     76.43% # Number of instructions issued per FU type, per thread (Count)
system.cpu.statIssuedInstType_0::FloatMultAcc            0      0.00%     76.43% # Number of instructions issued per FU type, per thread (Count)
system.cpu.statIssuedInstType_0::FloatDiv            0      0.00%     76.43% # Number of instructions issued per FU type, per thread (Count)
system.cpu.statIssuedInstType_0::FloatMisc            0      0.00%     76.43% # Number of instructions issued per FU type, per thread (Count)
system.cpu.statIssuedInstType_0::FloatSqrt            0      0.00%     76.43% # Number of instructions issued per FU type, per thread (Count)
system.cpu.statIssuedInstType_0::SimdAdd          748      0.25%     76.68% # Number of instructions issued per FU type, per thread (Count)
system.cpu.statIssuedInstType_0::SimdAddAcc            0      0.00%     76.68% # Number of instructions issued per FU type, per thread (Count)
system.cpu.statIssuedInstType_0::SimdAlu         1918      0.63%     77.31% # Number of instructions issued per FU type, per thread (Count)
system.cpu.statIssuedInstType_0::SimdCmp            0      0.00%     77.31% # Number of instructions issued per FU type, per thread (Count)
system.cpu.statIssuedInstType_0::SimdCvt         1762      0.58%     77.89% # Number of instructions issued per FU type, per thread (Count)
system.cpu.statIssuedInstType_0::SimdMisc         1296      0.43%     78.32% # Number of instructions issued per FU type, per thread (Count)
system.cpu.statIssuedInstType_0::SimdMult            0      0.00%     78.32% # Number of instructions issued per FU type, per thread (Count)
system.cpu.statIssuedInstType_0::SimdMultAcc            0      0.00%     78.32% # Number of instructions issued per FU type, per thread (Count)
system.cpu.statIssuedInstType_0::SimdShift          617      0.20%     78.52% # Number of instructions issued per FU type, per thread (Count)
system.cpu.statIssuedInstType_0::SimdShiftAcc            0      0.00%     78.52% # Number of instructions issued per FU type, per thread (Count)
system.cpu.statIssuedInstType_0::SimdDiv            0      0.00%     78.52% # Number of instructions issued per FU type, per thread (Count)
system.cpu.statIssuedInstType_0::SimdSqrt            0      0.00%     78.52% # Number of instructions issued per FU type, per thread (Count)
system.cpu.statIssuedInstType_0::SimdFloatAdd            0      0.00%     78.52% # Number of instructions issued per FU type, per thread (Count)
system.cpu.statIssuedInstType_0::SimdFloatAlu            0      0.00%     78.52% # Number of instructions issued per FU type, per thread (Count)
system.cpu.statIssuedInstType_0::SimdFloatCmp            0      0.00%     78.52% # Number of instructions issued per FU type, per thread (Count)
system.cpu.statIssuedInstType_0::SimdFloatCvt            0      0.00%     78.52% # Number of instructions issued per FU type, per thread (Count)
system.cpu.statIssuedInstType_0::SimdFloatDiv            0      0.00%     78.52% # Number of instructions issued per FU type, per thread (Count)
system.cpu.statIssuedInstType_0::SimdFloatMisc            0      0.00%     78.52% # Number of instructions issued per FU type, per thread (Count)
system.cpu.statIssuedInstType_0::SimdFloatMult            0      0.00%     78.52% # Number of instructions issued per FU type, per thread (Count)
system.cpu.statIssuedInstType_0::SimdFloatMultAcc            0      0.00%     78.52% # Number of instructions issued per FU type, per thread (Count)
system.cpu.statIssuedInstType_0::SimdFloatSqrt            0      0.00%     78.52% # Number of instructions issued per FU type, per thread (Count)
system.cpu.statIssuedInstType_0::SimdReduceAdd            0      0.00%     78.52% # Number of instructions issued per FU type, per thread (Count)
system.cpu.statIssuedInstType_0::SimdReduceAlu            0      0.00%     78.52% # Number of instructions issued per FU type, per thread (Count)
system.cpu.statIssuedInstType_0::SimdReduceCmp            0      0.00%     78.52% # Number of instructions issued per FU type, per thread (Count)
system.cpu.statIssuedInstType_0::SimdFloatReduceAdd            0      0.00%     78.52% # Number of instructions issued per FU type, per thread (Count)
system.cpu.statIssuedInstType_0::SimdFloatReduceCmp            0      0.00%     78.52% # Number of instructions issued per FU type, per thread (Count)
system.cpu.statIssuedInstType_0::SimdAes            0      0.00%     78.52% # Number of instructions issued per FU type, per thread (Count)
system.cpu.statIssuedInstType_0::SimdAesMix            0      0.00%     78.52% # Number of instructions issued per FU type, per thread (Count)
system.cpu.statIssuedInstType_0::SimdSha1Hash            0      0.00%     78.52% # Number of instructions issued per FU type, per thread (Count)
system.cpu.statIssuedInstType_0::SimdSha1Hash2            0      0.00%     78.52% # Number of instructions issued per FU type, per thread (Count)
system.cpu.statIssuedInstType_0::SimdSha256Hash            0      0.00%     78.52% # Number of instructions issued per FU type, per thread (Count)
system.cpu.statIssuedInstType_0::SimdSha256Hash2            0      0.00%     78.52% # Number of instructions issued per FU type, per thread (Count)
system.cpu.statIssuedInstType_0::SimdShaSigma2            0      0.00%     78.52% # Number of instructions issued per FU type, per thread (Count)
system.cpu.statIssuedInstType_0::SimdShaSigma3            0      0.00%     78.52% # Number of instructions issued per FU type, per thread (Count)
system.cpu.statIssuedInstType_0::SimdPredAlu            0      0.00%     78.52% # Number of instructions issued per FU type, per thread (Count)
system.cpu.statIssuedInstType_0::MemRead        43813     14.42%     92.95% # Number of instructions issued per FU type, per thread (Count)
system.cpu.statIssuedInstType_0::MemWrite        17657      5.81%     98.76% # Number of instructions issued per FU type, per thread (Count)
system.cpu.statIssuedInstType_0::FloatMemRead         2493      0.82%     99.58% # Number of instructions issued per FU type, per thread (Count)
system.cpu.statIssuedInstType_0::FloatMemWrite         1275      0.42%    100.00% # Number of instructions issued per FU type, per thread (Count)
system.cpu.statIssuedInstType_0::IprAccess            0      0.00%    100.00% # Number of instructions issued per FU type, per thread (Count)
system.cpu.statIssuedInstType_0::InstPrefetch            0      0.00%    100.00% # Number of instructions issued per FU type, per thread (Count)
system.cpu.statIssuedInstType_0::total         303736                       # Number of instructions issued per FU type, per thread (Count)
system.cpu.issueRate                         1.385828                       # Inst issue rate ((Count/Cycle))
system.cpu.fuBusy                                4582                       # FU busy when requested (Count)
system.cpu.fuBusyRate                        0.015085                       # FU busy rate (busy events/executed inst) ((Count/Count))
system.cpu.intInstQueueReads                   778274                       # Number of integer instruction queue reads (Count)
system.cpu.intInstQueueWrites                  433531                       # Number of integer instruction queue writes (Count)
system.cpu.intInstQueueWakeupAccesses          283819                       # Number of integer instruction queue wakeup accesses (Count)
system.cpu.fpInstQueueReads                     22303                       # Number of floating instruction queue reads (Count)
system.cpu.fpInstQueueWrites                    19510                       # Number of floating instruction queue writes (Count)
system.cpu.fpInstQueueWakeupAccesses            10459                       # Number of floating instruction queue wakeup accesses (Count)
system.cpu.vecInstQueueReads                        0                       # Number of vector instruction queue reads (Count)
system.cpu.vecInstQueueWrites                       0                       # Number of vector instruction queue writes (Count)
system.cpu.vecInstQueueWakeupAccesses               0                       # Number of vector instruction queue wakeup accesses (Count)
system.cpu.intAluAccesses                      293759                       # Number of integer alu accesses (Count)
system.cpu.fpAluAccesses                        11169                       # Number of floating point alu accesses (Count)
system.cpu.vecAluAccesses                           0                       # Number of vector alu accesses (Count)
system.cpu.idleCycles                               0                       # Number of cycles IEW is idle (Cycle)
system.cpu.squashCycles                          2601                       # Number of cycles IEW is squashing (Cycle)
system.cpu.blockCycles                          49185                       # Number of cycles IEW is blocking (Cycle)
system.cpu.unblockCycles                         2977                       # Number of cycles IEW is unblocking (Cycle)
system.cpu.dispatchedInsts                     340191                       # Number of instructions dispatched to IQ (Count)
system.cpu.dispSquashedInsts                      452                       # Number of squashed instructions skipped by dispatch (Count)
system.cpu.dispLoadInsts                        48064                       # Number of dispatched load instructions (Count)
system.cpu.dispStoreInsts                       21093                       # Number of dispatched store instructions (Count)
system.cpu.dispNonSpecInsts                         5                       # Number of dispatched non-speculative instructions (Count)
system.cpu.iqFullEvents                           866                       # Number of times the IQ has become full, causing a stall (Count)
system.cpu.lsqFullEvents                         1733                       # Number of times the LSQ has become full, causing a stall (Count)
system.cpu.memOrderViolationEvents                 65                       # Number of memory order violations (Count)
system.cpu.predictedTakenIncorrect                561                       # Number of branches that were predicted taken incorrectly (Count)
system.cpu.predictedNotTakenIncorrect            2330                       # Number of branches that were predicted not taken incorrectly (Count)
system.cpu.branchMispredicts                     2891                       # Number of branch mispredicts detected at execute (Count)
system.cpu.numInsts                            299050                       # Number of executed instructions (Count)
system.cpu.numLoadInsts                         45232                       # Number of load instructions executed (Count)
system.cpu.numSquashedInsts                      4681                       # Number of squashed instructions skipped in execute (Count)
system.cpu.numSwp                                   0                       # Number of swp insts executed (Count)
system.cpu.numNop                                   0                       # Number of nop insts executed (Count)
system.cpu.numRefs                              63721                       # Number of memory reference insts executed (Count)
system.cpu.numBranches                          28094                       # Number of branches executed (Count)
system.cpu.numStoreInsts                        18489                       # Number of stores executed (Count)
system.cpu.numRate                           1.364447                       # Inst execution rate ((Count/Cycle))
system.cpu.instsToCommit                       295843                       # Cumulative count of insts sent to commit (Count)
system.cpu.writebackCount                      294278                       # Cumulative count of insts written-back (Count)
system.cpu.producerInst                        221689                       # Number of instructions producing a value (Count)
system.cpu.consumerInst                        386642                       # Number of instructions consuming a value (Count)
system.cpu.wbRate                            1.342675                       # Insts written-back per cycle ((Count/Cycle))
system.cpu.wbFanout                          0.573370                       # Average fanout of values written-back ((Count/Count))
system.cpu.timesIdled                             755                       # Number of times that the entire CPU went into an idle state and unscheduled itself (Count)
system.cpu.idleCycles                           30970                       # Total number of cycles that the CPU has spent unscheduled due to idling (Cycle)
system.cpu.committedInsts                      123064                       # Number of Instructions Simulated (Count)
system.cpu.committedOps                        227381                       # Number of Ops (including micro ops) Simulated (Count)
system.cpu.cpi                               1.780968                       # CPI: Cycles Per Instruction ((Cycle/Count))
system.cpu.totalCpi                          1.780968                       # CPI: Total CPI of All Threads ((Cycle/Count))
system.cpu.ipc                               0.561493                       # IPC: Instructions Per Cycle ((Count/Cycle))
system.cpu.totalIpc                          0.561493                       # IPC: Total IPC of All Threads ((Count/Cycle))
system.cpu.intRegfileReads                     440435                       # Number of integer regfile reads (Count)
system.cpu.intRegfileWrites                    240897                       # Number of integer regfile writes (Count)
system.cpu.fpRegfileReads                       15643                       # Number of floating regfile reads (Count)
system.cpu.fpRegfileWrites                       8456                       # Number of floating regfile writes (Count)
system.cpu.ccRegfileReads                      159760                       # number of cc regfile reads (Count)
system.cpu.ccRegfileWrites                     103335                       # number of cc regfile writes (Count)
system.cpu.miscRegfileReads                    123436                       # number of misc regfile reads (Count)
system.cpu.MemDepUnit__0.insertedLoads          48064                       # Number of loads inserted to the mem dependence unit. (Count)
system.cpu.MemDepUnit__0.insertedStores         21093                       # Number of stores inserted to the mem dependence unit. (Count)
system.cpu.MemDepUnit__0.conflictingLoads         1209                       # Number of conflicting loads. (Count)
system.cpu.MemDepUnit__0.conflictingStores          676                       # Number of conflicting stores. (Count)
system.cpu.MemDepUnit__1.insertedLoads              0                       # Number of loads inserted to the mem dependence unit. (Count)
system.cpu.MemDepUnit__1.insertedStores             0                       # Number of stores inserted to the mem dependence unit. (Count)
system.cpu.MemDepUnit__1.conflictingLoads            0                       # Number of conflicting loads. (Count)
system.cpu.MemDepUnit__1.conflictingStores            0                       # Number of conflicting stores. (Count)
system.cpu.MemDepUnit__2.insertedLoads              0                       # Number of loads inserted to the mem dependence unit. (Count)
system.cpu.MemDepUnit__2.insertedStores             0                       # Number of stores inserted to the mem dependence unit. (Count)
system.cpu.MemDepUnit__2.conflictingLoads            0                       # Number of conflicting loads. (Count)
system.cpu.MemDepUnit__2.conflictingStores            0                       # Number of conflicting stores. (Count)
system.cpu.MemDepUnit__3.insertedLoads              0                       # Number of loads inserted to the mem dependence unit. (Count)
system.cpu.MemDepUnit__3.insertedStores             0                       # Number of stores inserted to the mem dependence unit. (Count)
system.cpu.MemDepUnit__3.conflictingLoads            0                       # Number of conflicting loads. (Count)
system.cpu.MemDepUnit__3.conflictingStores            0                       # Number of conflicting stores. (Count)
system.cpu.branchPred.lookups                   39882                       # Number of BP lookups (Count)
system.cpu.branchPred.condPredicted             33502                       # Number of conditional branches predicted (Count)
system.cpu.branchPred.condIncorrect              2720                       # Number of conditional branches incorrect (Count)
system.cpu.branchPred.BTBLookups                15570                       # Number of BTB lookups (Count)
system.cpu.branchPred.BTBHits                   13895                       # Number of BTB hits (Count)
system.cpu.branchPred.BTBHitRatio            0.892421                       # BTB Hit Ratio (Ratio)
system.cpu.branchPred.RASUsed                    1735                       # Number of times the RAS was used to get a target. (Count)
system.cpu.branchPred.RASIncorrect                  4                       # Number of incorrect RAS predictions. (Count)
system.cpu.branchPred.indirectLookups            1134                       # Number of indirect predictor lookups. (Count)
[...]
system.mem_ctrl.wrQLenPdf::63                       0                       # What write queue length does an incoming req see (Count)
system.mem_ctrl.rdPerTurnAround::samples           42                       # Reads before turning the bus around for writes (Count)
system.mem_ctrl.rdPerTurnAround::mean       15.690476                       # Reads before turning the bus around for writes (Count)
system.mem_ctrl.rdPerTurnAround::gmean      15.497092                       # Reads before turning the bus around for writes (Count)
system.mem_ctrl.rdPerTurnAround::stdev       1.854304                       # Reads before turning the bus around for writes (Count)
system.mem_ctrl.rdPerTurnAround::5                  1      2.38%      2.38% # Reads before turning the bus around for writes (Count)
system.mem_ctrl.rdPerTurnAround::12                 1      2.38%      4.76% # Reads before turning the bus around for writes (Count)
system.mem_ctrl.rdPerTurnAround::15                 3      7.14%     11.90% # Reads before turning the bus around for writes (Count)
system.mem_ctrl.rdPerTurnAround::16                32     76.19%     88.10% # Reads before turning the bus around for writes (Count)
system.mem_ctrl.rdPerTurnAround::17                 5     11.90%    100.00% # Reads before turning the bus around for writes (Count)
system.mem_ctrl.rdPerTurnAround::total             42                       # Reads before turning the bus around for writes (Count)
system.mem_ctrl.wrPerTurnAround::samples           42                       # Writes before turning the bus around for reads (Count)
system.mem_ctrl.wrPerTurnAround::mean       16.095238                       # Writes before turning the bus around for reads (Count)
system.mem_ctrl.wrPerTurnAround::gmean      16.089992                       # Writes before turning the bus around for reads (Count)
system.mem_ctrl.wrPerTurnAround::stdev       0.431081                       # Writes before turning the bus around for reads (Count)
system.mem_ctrl.wrPerTurnAround::16                40     95.24%     95.24% # Writes before turning the bus around for reads (Count)
system.mem_ctrl.wrPerTurnAround::18                 2      4.76%    100.00% # Writes before turning the bus around for reads (Count)
system.mem_ctrl.wrPerTurnAround::total             42                       # Writes before turning the bus around for reads (Count)
system.mem_ctrl.bytesReadWrQ                     1088                       # Total number of bytes read from write queue (Byte)
system.mem_ctrl.bytesReadSys                    43456                       # Total read bytes from the system interface side (Byte)
system.mem_ctrl.bytesWrittenSys                 43456                       # Total written bytes from the system interface side (Byte)
system.mem_ctrl.avgRdBWSys               77998628.70599385                       # Average system read bandwidth in Byte/s ((Byte/Second))
system.mem_ctrl.avgWrBWSys               77998628.70599385                       # Average system write bandwidth in Byte/s ((Byte/Second))
system.mem_ctrl.totGap                      720446000                       # Total gap between requests (Tick)
system.mem_ctrl.avgGap                      530519.88                       # Average gap between requests ((Tick/Count))
system.mem_ctrl.requestorReadBytes::caches.controllers1        42368                       # Per-requestor bytes read from memory (Byte)
system.mem_ctrl.requestorWriteBytes::caches.controllers1        43264                       # Per-requestor bytes write to memory (Byte)
system.mem_ctrl.requestorReadRate::caches.controllers1 76045791.168435826898                       # Per-requestor bytes read from memory rate ((Byte/Second))
system.mem_ctrl.requestorWriteRate::caches.controllers1 77654010.317013025284                       # Per-requestor bytes write to memory rate ((Byte/Second))
system.mem_ctrl.requestorReadAccesses::caches.controllers1          679                       # Per-requestor read serviced memory accesses (Count)
system.mem_ctrl.requestorWriteAccesses::caches.controllers1          679                       # Per-requestor write serviced memory accesses (Count)
system.mem_ctrl.requestorReadTotalLat::caches.controllers1     25050750                       # Per-requestor read total memory access latency (Tick)
system.mem_ctrl.requestorWriteTotalLat::caches.controllers1  16914110000                       # Per-requestor write total memory access latency (Tick)
system.mem_ctrl.requestorReadAvgLat::caches.controllers1     36893.59                       # Per-requestor read average memory access latency ((Tick/Count))
system.mem_ctrl.requestorWriteAvgLat::caches.controllers1  24910324.01                       # Per-requestor write average memory access latency ((Tick/Count))
system.mem_ctrl.dram.bytesRead::caches.controllers1        43456                       # Number of bytes read from this memory (Byte)
system.mem_ctrl.dram.bytesRead::total           43456                       # Number of bytes read from this memory (Byte)
system.mem_ctrl.dram.bytesWritten::caches.controllers1        43456                       # Number of bytes written to this memory (Byte)
system.mem_ctrl.dram.bytesWritten::total        43456                       # Number of bytes written to this memory (Byte)
system.mem_ctrl.dram.numReads::caches.controllers1          679                       # Number of read requests responded to by this memory (Count)
system.mem_ctrl.dram.numReads::total              679                       # Number of read requests responded to by this memory (Count)
system.mem_ctrl.dram.numWrites::caches.controllers1          679                       # Number of write requests responded to by this memory (Count)
system.mem_ctrl.dram.numWrites::total             679                       # Number of write requests responded to by this memory (Count)
system.mem_ctrl.dram.bwRead::caches.controllers1     77998629                       # Total read bandwidth from this memory ((Byte/Second))
system.mem_ctrl.dram.bwRead::total           77998629                       # Total read bandwidth from this memory ((Byte/Second))
system.mem_ctrl.dram.bwWrite::caches.controllers1     77998629                       # Write bandwidth from this memory ((Byte/Second))
system.mem_ctrl.dram.bwWrite::total          77998629                       # Write bandwidth from this memory ((Byte/Second))
system.mem_ctrl.dram.bwTotal::caches.controllers1    155997257                       # Total bandwidth to/from this memory ((Byte/Second))
system.mem_ctrl.dram.bwTotal::total         155997257                       # Total bandwidth to/from this memory ((Byte/Second))
system.mem_ctrl.dram.readBursts                   662                       # Number of DRAM read bursts (Count)
system.mem_ctrl.dram.writeBursts                  676                       # Number of DRAM write bursts (Count)
system.mem_ctrl.dram.perBankRdBursts::0            34                       # Per bank write bursts (Count)
system.mem_ctrl.dram.perBankRdBursts::1            20                       # Per bank write bursts (Count)
system.mem_ctrl.dram.perBankRdBursts::2            55                       # Per bank write bursts (Count)
system.mem_ctrl.dram.perBankRdBursts::3           145                       # Per bank write bursts (Count)
system.mem_ctrl.dram.perBankRdBursts::4            61                       # Per bank write bursts (Count)
system.mem_ctrl.dram.perBankRdBursts::5            40                       # Per bank write bursts (Count)
system.mem_ctrl.dram.perBankRdBursts::6            17                       # Per bank write bursts (Count)
system.mem_ctrl.dram.perBankRdBursts::7             5                       # Per bank write bursts (Count)
system.mem_ctrl.dram.perBankRdBursts::8            23                       # Per bank write bursts (Count)
system.mem_ctrl.dram.perBankRdBursts::9            28                       # Per bank write bursts (Count)
system.mem_ctrl.dram.perBankRdBursts::10           18                       # Per bank write bursts (Count)
system.mem_ctrl.dram.perBankRdBursts::11          109                       # Per bank write bursts (Count)
system.mem_ctrl.dram.perBankRdBursts::12           19                       # Per bank write bursts (Count)
system.mem_ctrl.dram.perBankRdBursts::13           13                       # Per bank write bursts (Count)
system.mem_ctrl.dram.perBankRdBursts::14           40                       # Per bank write bursts (Count)
system.mem_ctrl.dram.perBankRdBursts::15           35                       # Per bank write bursts (Count)
system.mem_ctrl.dram.perBankWrBursts::0           128                       # Per bank write bursts (Count)
system.mem_ctrl.dram.perBankWrBursts::1           130                       # Per bank write bursts (Count)
system.mem_ctrl.dram.perBankWrBursts::2           143                       # Per bank write bursts (Count)
system.mem_ctrl.dram.perBankWrBursts::3            84                       # Per bank write bursts (Count)
system.mem_ctrl.dram.perBankWrBursts::4             1                       # Per bank write bursts (Count)
system.mem_ctrl.dram.perBankWrBursts::5             4                       # Per bank write bursts (Count)
system.mem_ctrl.dram.perBankWrBursts::6             2                       # Per bank write bursts (Count)
system.mem_ctrl.dram.perBankWrBursts::7             1                       # Per bank write bursts (Count)
system.mem_ctrl.dram.perBankWrBursts::8             2                       # Per bank write bursts (Count)
system.mem_ctrl.dram.perBankWrBursts::9             2                       # Per bank write bursts (Count)
system.mem_ctrl.dram.perBankWrBursts::10            0                       # Per bank write bursts (Count)
system.mem_ctrl.dram.perBankWrBursts::11           19                       # Per bank write bursts (Count)
system.mem_ctrl.dram.perBankWrBursts::12            7                       # Per bank write bursts (Count)
system.mem_ctrl.dram.perBankWrBursts::13            3                       # Per bank write bursts (Count)
system.mem_ctrl.dram.perBankWrBursts::14           32                       # Per bank write bursts (Count)
system.mem_ctrl.dram.perBankWrBursts::15          118                       # Per bank write bursts (Count)
system.mem_ctrl.dram.totQLat                 12638250                       # Total ticks spent queuing (Tick)
system.mem_ctrl.dram.totBusLat                3310000                       # Total ticks spent in databus transfers (Tick)
system.mem_ctrl.dram.totMemAccLat            25050750                       # Total ticks spent from burst creation until serviced by the DRAM (Tick)
system.mem_ctrl.dram.avgQLat                 19091.01                       # Average queueing delay per DRAM burst ((Tick/Count))
system.mem_ctrl.dram.avgBusLat                5000.00                       # Average bus latency per DRAM burst ((Tick/Count))
system.mem_ctrl.dram.avgMemAccLat            37841.01                       # Average memory access latency per DRAM burst ((Tick/Count))
system.mem_ctrl.dram.readRowHits                  520                       # Number of row buffer hits during reads (Count)
system.mem_ctrl.dram.writeRowHits                 609                       # Number of row buffer hits during writes (Count)
system.mem_ctrl.dram.readRowHitRate             78.55                       # Row buffer hit rate for reads (Ratio)
system.mem_ctrl.dram.writeRowHitRate            90.09                       # Row buffer hit rate for writes (Ratio)
system.mem_ctrl.dram.bytesPerActivate::samples          196                       # Bytes accessed per row activation (Byte)
system.mem_ctrl.dram.bytesPerActivate::mean   420.897959                       # Bytes accessed per row activation (Byte)
system.mem_ctrl.dram.bytesPerActivate::gmean   266.306611                       # Bytes accessed per row activation (Byte)
system.mem_ctrl.dram.bytesPerActivate::stdev   362.092395                       # Bytes accessed per row activation (Byte)
system.mem_ctrl.dram.bytesPerActivate::0-127           44     22.45%     22.45% # Bytes accessed per row activation (Byte)
system.mem_ctrl.dram.bytesPerActivate::128-255           46     23.47%     45.92% # Bytes accessed per row activation (Byte)
system.mem_ctrl.dram.bytesPerActivate::256-383           19      9.69%     55.61% # Bytes accessed per row activation (Byte)
system.mem_ctrl.dram.bytesPerActivate::384-511           21     10.71%     66.33% # Bytes accessed per row activation (Byte)
system.mem_ctrl.dram.bytesPerActivate::512-639           10      5.10%     71.43% # Bytes accessed per row activation (Byte)
system.mem_ctrl.dram.bytesPerActivate::640-767            8      4.08%     75.51% # Bytes accessed per row activation (Byte)
system.mem_ctrl.dram.bytesPerActivate::768-895            6      3.06%     78.57% # Bytes accessed per row activation (Byte)
system.mem_ctrl.dram.bytesPerActivate::896-1023            6      3.06%     81.63% # Bytes accessed per row activation (Byte)
system.mem_ctrl.dram.bytesPerActivate::1024-1151           36     18.37%    100.00% # Bytes accessed per row activation (Byte)
system.mem_ctrl.dram.bytesPerActivate::total          196                       # Bytes accessed per row activation (Byte)
system.mem_ctrl.dram.bytesRead                  42368                       # Total number of bytes read from DRAM (Byte)
system.mem_ctrl.dram.bytesWritten               43264                       # Total number of bytes written to DRAM (Byte)
system.mem_ctrl.dram.avgRdBW                76.045791                       # Average DRAM read bandwidth in MiBytes/s ((Byte/Second))
system.mem_ctrl.dram.avgWrBW                77.654010                       # Average DRAM write bandwidth in MiBytes/s ((Byte/Second))
system.mem_ctrl.dram.peakBW                  12800.00                       # Theoretical peak bandwidth in MiByte/s ((Byte/Second))
system.mem_ctrl.dram.busUtil                     1.20                       # Data bus utilization in percentage (Ratio)
system.mem_ctrl.dram.busUtilRead                 0.59                       # Data bus utilization in percentage for reads (Ratio)
system.mem_ctrl.dram.busUtilWrite                0.61                       # Data bus utilization in percentage for writes (Ratio)
system.mem_ctrl.dram.pageHitRate                84.38                       # Row buffer hit rate, read and write combined (Ratio)
system.mem_ctrl.dram.power_state.pwrStateResidencyTicks::UNDEFINED    557138000                       # Cumulative time (in ticks) in various power states (Tick)
system.mem_ctrl.dram.rank0.actEnergy           892500                       # Energy for activate commands per rank (pJ) (Joule)
system.mem_ctrl.dram.rank0.preEnergy           447810                       # Energy for precharge commands per rank (pJ) (Joule)
system.mem_ctrl.dram.rank0.readEnergy         2691780                       # Energy for read commands per rank (pJ) (Joule)
system.mem_ctrl.dram.rank0.writeEnergy        2573460                       # Energy for write commands per rank (pJ) (Joule)
system.mem_ctrl.dram.rank0.refreshEnergy 43639440.000000                       # Energy for refresh commands per rank (pJ) (Joule)
system.mem_ctrl.dram.rank0.actBackEnergy     36130020                       # Energy for active background per rank (pJ) (Joule)
system.mem_ctrl.dram.rank0.preBackEnergy    183515520                       # Energy for precharge background per rank (pJ) (Joule)
system.mem_ctrl.dram.rank0.actPowerDownEnergy            0                       # Energy for active power-down per rank (pJ) (Joule)
system.mem_ctrl.dram.rank0.prePowerDownEnergy            0                       # Energy for precharge power-down per rank (pJ) (Joule)
system.mem_ctrl.dram.rank0.selfRefreshEnergy            0                       # Energy for self refresh per rank (pJ) (Joule)
system.mem_ctrl.dram.rank0.totalEnergy      269890530                       # Total energy per rank (pJ) (Joule)
system.mem_ctrl.dram.rank0.averagePower    484.423123                       # Core power per rank (mW) (Watt)
system.mem_ctrl.dram.rank0.totalIdleTime            0                       # Total Idle time Per DRAM Rank (Tick)
system.mem_ctrl.dram.rank0.pwrStateTime::IDLE    476789500                       # Time in different power states (Tick)
system.mem_ctrl.dram.rank0.pwrStateTime::REF     18460000                       # Time in different power states (Tick)
system.mem_ctrl.dram.rank0.pwrStateTime::SREF            0                       # Time in different power states (Tick)
system.mem_ctrl.dram.rank0.pwrStateTime::PRE_PDN            0                       # Time in different power states (Tick)
system.mem_ctrl.dram.rank0.pwrStateTime::ACT     61888500                       # Time in different power states (Tick)
system.mem_ctrl.dram.rank0.pwrStateTime::ACT_PDN            0                       # Time in different power states (Tick)
system.mem_ctrl.dram.rank1.actEnergy           599760                       # Energy for activate commands per rank (pJ) (Joule)
system.mem_ctrl.dram.rank1.preEnergy           296010                       # Energy for precharge commands per rank (pJ) (Joule)
system.mem_ctrl.dram.rank1.readEnergy         2034900                       # Energy for read commands per rank (pJ) (Joule)
system.mem_ctrl.dram.rank1.writeEnergy         955260                       # Energy for write commands per rank (pJ) (Joule)
system.mem_ctrl.dram.rank1.refreshEnergy 43639440.000000                       # Energy for refresh commands per rank (pJ) (Joule)
system.mem_ctrl.dram.rank1.actBackEnergy     39477630                       # Energy for active background per rank (pJ) (Joule)
system.mem_ctrl.dram.rank1.preBackEnergy    180696480                       # Energy for precharge background per rank (pJ) (Joule)
system.mem_ctrl.dram.rank1.actPowerDownEnergy            0                       # Energy for active power-down per rank (pJ) (Joule)
system.mem_ctrl.dram.rank1.prePowerDownEnergy            0                       # Energy for precharge power-down per rank (pJ) (Joule)
system.mem_ctrl.dram.rank1.selfRefreshEnergy            0                       # Energy for self refresh per rank (pJ) (Joule)
system.mem_ctrl.dram.rank1.totalEnergy      267699480                       # Total energy per rank (pJ) (Joule)
system.mem_ctrl.dram.rank1.averagePower    480.490435                       # Core power per rank (mW) (Watt)
system.mem_ctrl.dram.rank1.totalIdleTime            0                       # Total Idle time Per DRAM Rank (Tick)
system.mem_ctrl.dram.rank1.pwrStateTime::IDLE    469378750                       # Time in different power states (Tick)
system.mem_ctrl.dram.rank1.pwrStateTime::REF     18460000                       # Time in different power states (Tick)
system.mem_ctrl.dram.rank1.pwrStateTime::SREF            0                       # Time in different power states (Tick)
system.mem_ctrl.dram.rank1.pwrStateTime::PRE_PDN            0                       # Time in different power states (Tick)
system.mem_ctrl.dram.rank1.pwrStateTime::ACT     69299250                       # Time in different power states (Tick)
system.mem_ctrl.dram.rank1.pwrStateTime::ACT_PDN            0                       # Time in different power states (Tick)
system.mem_ctrl.power_state.pwrStateResidencyTicks::UNDEFINED    557138000                       # Cumulative time (in ticks) in various power states (Tick)
system.workload.inst.arm                            0                       # number of arm instructions executed (Count)
system.workload.inst.quiesce                        0                       # number of quiesce instructions executed (Count)

---------- End Simulation Statistics   ----------
