
---------- Begin Simulation Statistics ----------
simSeconds                                   0.011961                       # Number of seconds simulated (Second)
simTicks                                  11961021000                       # Number of ticks simulated (Tick)
finalTick                                 15042196000                       # Number of ticks from beginning of simulation (restored from checkpoints and never reset) (Tick)
simFreq                                  1000000000000                       # The number of ticks per simulated second ((Tick/Second))
hostSeconds                                     33.91                       # Real time elapsed on the host (Second)
hostTickRate                                352767589                       # The number of ticks simulated per host second (ticks/s) ((Tick/Second))
hostMemory                                    9646220                       # Number of bytes of host memory used (Byte)
simInsts                                      6464554                       # Number of instructions simulated (Count)
simOps                                       12337784                       # Number of ops (including micro ops) simulated (Count)
hostInstRate                                   190659                       # Simulator instruction rate (inst/s) ((Count/Second))
hostOpRate                                     363877                       # Simulator op (including micro ops) rate (op/s) ((Count/Second))
system.caches.delayHistogram::bucket_size            4                       # delay histogram for all message (Unspecified)
system.caches.delayHistogram::max_bucket           39                       # delay histogram for all message (Unspecified)
system.caches.delayHistogram::samples          371422                       # delay histogram for all message (Unspecified)
system.caches.delayHistogram::mean           0.100301                       # delay histogram for all message (Unspecified)
system.caches.delayHistogram::stdev          0.836352                       # delay histogram for all message (Unspecified)
system.caches.delayHistogram             |      365772     98.48%     98.48% |        5210      1.40%     99.88% |         233      0.06%     99.94% |          14      0.00%     99.95% |         159      0.04%     99.99% |          11      0.00%     99.99% |          19      0.01%    100.00% |           2      0.00%    100.00% |           2      0.00%    100.00% |           0      0.00%    100.00% # delay histogram for all message (Unspecified)
system.caches.delayHistogram::total            371422                       # delay histogram for all message (Unspecified)
system.caches.m_outstandReqHistSeqr::bucket_size            1                       (Unspecified)
system.caches.m_outstandReqHistSeqr::max_bucket            9                       (Unspecified)
system.caches.m_outstandReqHistSeqr::samples      1048587                       (Unspecified)
system.caches.m_outstandReqHistSeqr::mean     1.000031                       (Unspecified)
system.caches.m_outstandReqHistSeqr::gmean     1.000021                       (Unspecified)
system.caches.m_outstandReqHistSeqr::stdev     0.005859                       (Unspecified)
system.caches.m_outstandReqHistSeqr      |           0      0.00%      0.00% |     1048557    100.00%    100.00% |          28      0.00%    100.00% |           2      0.00%    100.00% |           0      0.00%    100.00% |           0      0.00%    100.00% |           0      0.00%    100.00% |           0      0.00%    100.00% |           0      0.00%    100.00% |           0      0.00%    100.00% (Unspecified)
system.caches.m_outstandReqHistSeqr::total      1048587                       (Unspecified)
system.caches.m_latencyHistSeqr::bucket_size           64                       (Unspecified)
system.caches.m_latencyHistSeqr::max_bucket          639                       (Unspecified)
system.caches.m_latencyHistSeqr::samples      1048587                       (Unspecified)
system.caches.m_latencyHistSeqr::mean        9.407215                       (Unspecified)
system.caches.m_latencyHistSeqr::gmean       1.678332                       (Unspecified)
system.caches.m_latencyHistSeqr::stdev      26.801172                       (Unspecified)
system.caches.m_latencyHistSeqr          |     1032952     98.51%     98.51% |        6158      0.59%     99.10% |        5085      0.48%     99.58% |        2856      0.27%     99.85% |         406      0.04%     99.89% |         880      0.08%     99.98% |           0      0.00%     99.98% |         248      0.02%    100.00% |           2      0.00%    100.00% |           0      0.00%    100.00% (Unspecified)
system.caches.m_latencyHistSeqr::total        1048587                       (Unspecified)
system.caches.m_hitLatencyHistSeqr::bucket_size            1                       (Unspecified)
system.caches.m_hitLatencyHistSeqr::max_bucket            9                       (Unspecified)
system.caches.m_hitLatencyHistSeqr::samples       917508                       (Unspecified)
system.caches.m_hitLatencyHistSeqr::mean            1                       (Unspecified)
system.caches.m_hitLatencyHistSeqr::gmean            1                       (Unspecified)
system.caches.m_hitLatencyHistSeqr       |           0      0.00%      0.00% |      917508    100.00%    100.00% |           0      0.00%    100.00% |           0      0.00%    100.00% |           0      0.00%    100.00% |           0      0.00%    100.00% |           0      0.00%    100.00% |           0      0.00%    100.00% |           0      0.00%    100.00% |           0      0.00%    100.00% (Unspecified)
system.caches.m_hitLatencyHistSeqr::total       917508                       (Unspecified)
system.caches.m_missLatencyHistSeqr::bucket_size           64                       (Unspecified)
system.caches.m_missLatencyHistSeqr::max_bucket          639                       (Unspecified)
system.caches.m_missLatencyHistSeqr::samples       131079                       (Unspecified)
system.caches.m_missLatencyHistSeqr::mean    68.254831                       (Unspecified)
system.caches.m_missLatencyHistSeqr::gmean    62.942882                       (Unspecified)
system.caches.m_missLatencyHistSeqr::stdev    42.289448                       (Unspecified)
system.caches.m_missLatencyHistSeqr      |      115444     88.07%     88.07% |        6158      4.70%     92.77% |        5085      3.88%     96.65% |        2856      2.18%     98.83% |         406      0.31%     99.14% |         880      0.67%     99.81% |           0      0.00%     99.81% |         248      0.19%    100.00% |           2      0.00%    100.00% |           0      0.00%    100.00% (Unspecified)
system.caches.m_missLatencyHistSeqr::total       131079                       (Unspecified)
system.caches.delayVCHist.vnet_1::bucket_size            1                       # delay histogram for vnet_1 (Unspecified)
system.caches.delayVCHist.vnet_1::max_bucket            9                       # delay histogram for vnet_1 (Unspecified)
system.caches.delayVCHist.vnet_1::samples       185967                       # delay histogram for vnet_1 (Unspecified)
system.caches.delayVCHist.vnet_1::mean       0.014282                       # delay histogram for vnet_1 (Unspecified)
system.caches.delayVCHist.vnet_1::stdev      0.279830                       # delay histogram for vnet_1 (Unspecified)
system.caches.delayVCHist.vnet_1         |      185366     99.68%     99.68% |           0      0.00%     99.68% |         215      0.12%     99.79% |           0      0.00%     99.79% |         138      0.07%     99.87% |           0      0.00%     99.87% |         155      0.08%     99.95% |           0      0.00%     99.95% |          93      0.05%    100.00% |           0      0.00%    100.00% # delay histogram for vnet_1 (Unspecified)
system.caches.delayVCHist.vnet_1::total        185967                       # delay histogram for vnet_1 (Unspecified)
system.caches.delayVCHist.vnet_2::bucket_size            4                       # delay histogram for vnet_2 (Unspecified)
system.caches.delayVCHist.vnet_2::max_bucket           39                       # delay histogram for vnet_2 (Unspecified)
system.caches.delayVCHist.vnet_2::samples       185455                       # delay histogram for vnet_2 (Unspecified)
system.caches.delayVCHist.vnet_2::mean       0.186557                       # delay histogram for vnet_2 (Unspecified)
system.caches.delayVCHist.vnet_2::stdev      1.143470                       # delay histogram for vnet_2 (Unspecified)
system.caches.delayVCHist.vnet_2         |      180191     97.16%     97.16% |        4917      2.65%     99.81% |         140      0.08%     99.89% |          14      0.01%     99.90% |         159      0.09%     99.98% |          11      0.01%     99.99% |          19      0.01%    100.00% |           2      0.00%    100.00% |           2      0.00%    100.00% |           0      0.00%    100.00% # delay histogram for vnet_2 (Unspecified)
system.caches.delayVCHist.vnet_2::total        185455                       # delay histogram for vnet_2 (Unspecified)
system.caches.L1Cache_Controller.Load         1509742      0.00%      0.00% (Unspecified)
system.caches.L1Cache_Controller.Ifetch        270130      0.00%      0.00% (Unspecified)
system.caches.L1Cache_Controller.Store         212205      0.00%      0.00% (Unspecified)
system.caches.L1Cache_Controller.Data          185967      0.00%      0.00% (Unspecified)
system.caches.L1Cache_Controller.Replacement       185456      0.00%      0.00% (Unspecified)
system.caches.L1Cache_Controller.Writeback_Ack       185455      0.00%      0.00% (Unspecified)
system.caches.L1Cache_Controller.I.Load        160254      0.00%      0.00% (Unspecified)
system.caches.L1Cache_Controller.I.Ifetch        18299      0.00%      0.00% (Unspecified)
system.caches.L1Cache_Controller.I.Store         7415      0.00%      0.00% (Unspecified)
system.caches.L1Cache_Controller.M.Load       1349488      0.00%      0.00% (Unspecified)
system.caches.L1Cache_Controller.M.Ifetch       251831      0.00%      0.00% (Unspecified)
system.caches.L1Cache_Controller.M.Store       204790      0.00%      0.00% (Unspecified)
system.caches.L1Cache_Controller.M.Replacement       185456      0.00%      0.00% (Unspecified)
system.caches.L1Cache_Controller.MI.Writeback_Ack       185455      0.00%      0.00% (Unspecified)
system.caches.L1Cache_Controller.IS.Data       178552      0.00%      0.00% (Unspecified)
system.caches.L1Cache_Controller.IM.Data         7415      0.00%      0.00% (Unspecified)
system.caches.Directory_Controller.GETX        185968      0.00%      0.00% (Unspecified)
system.caches.Directory_Controller.PUTX        185456      0.00%      0.00% (Unspecified)
system.caches.Directory_Controller.Memory_Data       185967      0.00%      0.00% (Unspecified)
system.caches.Directory_Controller.Memory_Ack       185455      0.00%      0.00% (Unspecified)
system.caches.Directory_Controller.I.GETX       185968      0.00%      0.00% (Unspecified)
system.caches.Directory_Controller.M.PUTX       185456      0.00%      0.00% (Unspecified)
system.caches.Directory_Controller.IM.Memory_Data       185967      0.00%      0.00% (Unspecified)
system.caches.Directory_Controller.MI.Memory_Ack       185455      0.00%      0.00% (Unspecified)
system.caches.MachineType.Directory.miss_mach_latency_hist_seqr::bucket_size           64                       (Unspecified)
system.caches.MachineType.Directory.miss_mach_latency_hist_seqr::max_bucket          639                       (Unspecified)
system.caches.MachineType.Directory.miss_mach_latency_hist_seqr::samples       131079                       (Unspecified)
system.caches.MachineType.Directory.miss_mach_latency_hist_seqr::mean    68.254831                       (Unspecified)
system.caches.MachineType.Directory.miss_mach_latency_hist_seqr::gmean    62.942882                       (Unspecified)
system.caches.MachineType.Directory.miss_mach_latency_hist_seqr::stdev    42.289448                       (Unspecified)
system.caches.MachineType.Directory.miss_mach_latency_hist_seqr |      115444     88.07%     88.07% |        6158      4.70%     92.77% |        5085      3.88%     96.65% |        2856      2.18%     98.83% |         406      0.31%     99.14% |         880      0.67%     99.81% |           0      0.00%     99.81% |         248      0.19%    100.00% |           2      0.00%    100.00% |           0      0.00%    100.00% (Unspecified)
system.caches.MachineType.Directory.miss_mach_latency_hist_seqr::total       131079                       (Unspecified)
system.caches.MachineType.Directory.incomplete_times_seqr       185966                       (Unspecified)
system.caches.RequestType.LD.latency_hist_seqr::bucket_size           64                       (Unspecified)
system.caches.RequestType.LD.latency_hist_seqr::max_bucket          639                       (Unspecified)
system.caches.RequestType.LD.latency_hist_seqr::samples      1048579                       (Unspecified)
system.caches.RequestType.LD.latency_hist_seqr::mean     9.406871                       (Unspecified)
system.caches.RequestType.LD.latency_hist_seqr::gmean     1.678298                       (Unspecified)
system.caches.RequestType.LD.latency_hist_seqr::stdev    26.800841                       (Unspecified)
system.caches.RequestType.LD.latency_hist_seqr |     1032949     98.51%     98.51% |        6153      0.59%     99.10% |        5085      0.48%     99.58% |        2856      0.27%     99.85% |         406      0.04%     99.89% |         880      0.08%     99.98% |           0      0.00%     99.98% |         248      0.02%    100.00% |           2      0.00%    100.00% |           0      0.00%    100.00% (Unspecified)
system.caches.RequestType.LD.latency_hist_seqr::total      1048579                       (Unspecified)
system.caches.RequestType.LD.hit_latency_hist_seqr::bucket_size            1                       (Unspecified)
system.caches.RequestType.LD.hit_latency_hist_seqr::max_bucket            9                       (Unspecified)
system.caches.RequestType.LD.hit_latency_hist_seqr::samples       917506                       (Unspecified)
system.caches.RequestType.LD.hit_latency_hist_seqr::mean            1                       (Unspecified)
system.caches.RequestType.LD.hit_latency_hist_seqr::gmean            1                       (Unspecified)
system.caches.RequestType.LD.hit_latency_hist_seqr |           0      0.00%      0.00% |      917506    100.00%    100.00% |           0      0.00%    100.00% |           0      0.00%    100.00% |           0      0.00%    100.00% |           0      0.00%    100.00% |           0      0.00%    100.00% |           0      0.00%    100.00% |           0      0.00%    100.00% |           0      0.00%    100.00% (Unspecified)
system.caches.RequestType.LD.hit_latency_hist_seqr::total       917506                       (Unspecified)
system.caches.RequestType.LD.miss_latency_hist_seqr::bucket_size           64                       (Unspecified)
system.caches.RequestType.LD.miss_latency_hist_seqr::max_bucket          639                       (Unspecified)
system.caches.RequestType.LD.miss_latency_hist_seqr::samples       131073                       (Unspecified)
system.caches.RequestType.LD.miss_latency_hist_seqr::mean    68.254644                       (Unspecified)
system.caches.RequestType.LD.miss_latency_hist_seqr::gmean    62.942501                       (Unspecified)
system.caches.RequestType.LD.miss_latency_hist_seqr::stdev    42.290369                       (Unspecified)
system.caches.RequestType.LD.miss_latency_hist_seqr |      115443     88.08%     88.08% |        6153      4.69%     92.77% |        5085      3.88%     96.65% |        2856      2.18%     98.83% |         406      0.31%     99.14% |         880      0.67%     99.81% |           0      0.00%     99.81% |         248      0.19%    100.00% |           2      0.00%    100.00% |           0      0.00%    100.00% (Unspecified)
system.caches.RequestType.LD.miss_latency_hist_seqr::total       131073                       (Unspecified)
system.caches.RequestType.ST.latency_hist_seqr::bucket_size            8                       (Unspecified)
system.caches.RequestType.ST.latency_hist_seqr::max_bucket           79                       (Unspecified)
system.caches.RequestType.ST.latency_hist_seqr::samples            1                       (Unspecified)
system.caches.RequestType.ST.latency_hist_seqr::mean           77                       (Unspecified)
system.caches.RequestType.ST.latency_hist_seqr::gmean    77.000000                       (Unspecified)
system.caches.RequestType.ST.latency_hist_seqr::stdev          nan                       (Unspecified)
system.caches.RequestType.ST.latency_hist_seqr |           0      0.00%      0.00% |           0      0.00%      0.00% |           0      0.00%      0.00% |           0      0.00%      0.00% |           0      0.00%      0.00% |           0      0.00%      0.00% |           0      0.00%      0.00% |           0      0.00%      0.00% |           0      0.00%      0.00% |           1    100.00%    100.00% (Unspecified)
system.caches.RequestType.ST.latency_hist_seqr::total            1                       (Unspecified)
system.caches.RequestType.ST.miss_latency_hist_seqr::bucket_size            8                       (Unspecified)
system.caches.RequestType.ST.miss_latency_hist_seqr::max_bucket           79                       (Unspecified)
system.caches.RequestType.ST.miss_latency_hist_seqr::samples            1                       (Unspecified)
system.caches.RequestType.ST.miss_latency_hist_seqr::mean           77                       (Unspecified)
system.caches.RequestType.ST.miss_latency_hist_seqr::gmean    77.000000                       (Unspecified)
system.caches.RequestType.ST.miss_latency_hist_seqr::stdev          nan                       (Unspecified)
system.caches.RequestType.ST.miss_latency_hist_seqr |           0      0.00%      0.00% |           0      0.00%      0.00% |           0      0.00%      0.00% |           0      0.00%      0.00% |           0      0.00%      0.00% |           0      0.00%      0.00% |           0      0.00%      0.00% |           0      0.00%      0.00% |           0      0.00%      0.00% |           1    100.00%    100.00% (Unspecified)
system.caches.RequestType.ST.miss_latency_hist_seqr::total            1                       (Unspecified)
system.caches.RequestType.IFETCH.latency_hist_seqr::bucket_size           16                       (Unspecified)
system.caches.RequestType.IFETCH.latency_hist_seqr::max_bucket          159                       (Unspecified)
system.caches.RequestType.IFETCH.latency_hist_seqr::samples            7                       (Unspecified)
system.caches.RequestType.IFETCH.latency_hist_seqr::mean    51.285714                       (Unspecified)
system.caches.RequestType.IFETCH.latency_hist_seqr::gmean    20.969616                       (Unspecified)
system.caches.RequestType.IFETCH.latency_hist_seqr::stdev    35.297376                       (Unspecified)
system.caches.RequestType.IFETCH.latency_hist_seqr |           2     28.57%     28.57% |           0      0.00%     28.57% |           0      0.00%     28.57% |           1     14.29%     42.86% |           3     42.86%     85.71% |           1     14.29%    100.00% |           0      0.00%    100.00% |           0      0.00%    100.00% |           0      0.00%    100.00% |           0      0.00%    100.00% (Unspecified)
system.caches.RequestType.IFETCH.latency_hist_seqr::total            7                       (Unspecified)
system.caches.RequestType.IFETCH.hit_latency_hist_seqr::bucket_size            1                       (Unspecified)
system.caches.RequestType.IFETCH.hit_latency_hist_seqr::max_bucket            9                       (Unspecified)
system.caches.RequestType.IFETCH.hit_latency_hist_seqr::samples            2                       (Unspecified)
system.caches.RequestType.IFETCH.hit_latency_hist_seqr::mean            1                       (Unspecified)
system.caches.RequestType.IFETCH.hit_latency_hist_seqr::gmean            1                       (Unspecified)
system.caches.RequestType.IFETCH.hit_latency_hist_seqr |           0      0.00%      0.00% |           2    100.00%    100.00% |           0      0.00%    100.00% |           0      0.00%    100.00% |           0      0.00%    100.00% |           0      0.00%    100.00% |           0      0.00%    100.00% |           0      0.00%    100.00% |           0      0.00%    100.00% |           0      0.00%    100.00% (Unspecified)
system.caches.RequestType.IFETCH.hit_latency_hist_seqr::total            2                       (Unspecified)
system.caches.RequestType.IFETCH.miss_latency_hist_seqr::bucket_size           16                       (Unspecified)
system.caches.RequestType.IFETCH.miss_latency_hist_seqr::max_bucket          159                       (Unspecified)
system.caches.RequestType.IFETCH.miss_latency_hist_seqr::samples            5                       (Unspecified)
system.caches.RequestType.IFETCH.miss_latency_hist_seqr::mean    71.400000                       (Unspecified)
system.caches.RequestType.IFETCH.miss_latency_hist_seqr::gmean    70.831537                       (Unspecified)
system.caches.RequestType.IFETCH.miss_latency_hist_seqr::stdev     9.939819                       (Unspecified)
system.caches.RequestType.IFETCH.miss_latency_hist_seqr |           0      0.00%      0.00% |           0      0.00%      0.00% |           0      0.00%      0.00% |           1     20.00%     20.00% |           3     60.00%     80.00% |           1     20.00%    100.00% |           0      0.00%    100.00% |           0      0.00%    100.00% |           0      0.00%    100.00% |           0      0.00%    100.00% (Unspecified)
system.caches.RequestType.IFETCH.miss_latency_hist_seqr::total            5                       (Unspecified)
system.caches.RequestTypeMachineType.LD.Directory.miss_type_mach_latency_hist_seqr::bucket_size           64                       (Unspecified)
system.caches.RequestTypeMachineType.LD.Directory.miss_type_mach_latency_hist_seqr::max_bucket          639                       (Unspecified)
system.caches.RequestTypeMachineType.LD.Directory.miss_type_mach_latency_hist_seqr::samples       131073                       (Unspecified)
system.caches.RequestTypeMachineType.LD.Directory.miss_type_mach_latency_hist_seqr::mean    68.254644                       (Unspecified)
system.caches.RequestTypeMachineType.LD.Directory.miss_type_mach_latency_hist_seqr::gmean    62.942501                       (Unspecified)
system.caches.RequestTypeMachineType.LD.Directory.miss_type_mach_latency_hist_seqr::stdev    42.290369                       (Unspecified)
system.caches.RequestTypeMachineType.LD.Directory.miss_type_mach_latency_hist_seqr |      115443     88.08%     88.08% |        6153      4.69%     92.77% |        5085      3.88%     96.65% |        2856      2.18%     98.83% |         406      0.31%     99.14% |         880      0.67%     99.81% |           0      0.00%     99.81% |         248      0.19%    100.00% |           2      0.00%    100.00% |           0      0.00%    100.00% (Unspecified)
system.caches.RequestTypeMachineType.LD.Directory.miss_type_mach_latency_hist_seqr::total       131073                       (Unspecified)
system.caches.RequestTypeMachineType.ST.Directory.miss_type_mach_latency_hist_seqr::bucket_size            8                       (Unspecified)
system.caches.RequestTypeMachineType.ST.Directory.miss_type_mach_latency_hist_seqr::max_bucket           79                       (Unspecified)
system.caches.RequestTypeMachineType.ST.Directory.miss_type_mach_latency_hist_seqr::samples            1                       (Unspecified)
system.caches.RequestTypeMachineType.ST.Directory.miss_type_mach_latency_hist_seqr::mean           77                       (Unspecified)
system.caches.RequestTypeMachineType.ST.Directory.miss_type_mach_latency_hist_seqr::gmean    77.000000                       (Unspecified)
system.caches.RequestTypeMachineType.ST.Directory.miss_type_mach_latency_hist_seqr::stdev          nan                       (Unspecified)
system.caches.RequestTypeMachineType.ST.Directory.miss_type_mach_latency_hist_seqr |           0      0.00%      0.00% |           0      0.00%      0.00% |           0      0.00%      0.00% |           0      0.00%      0.00% |           0      0.00%      0.00% |           0      0.00%      0.00% |           0      0.00%      0.00% |           0      0.00%      0.00% |           0      0.00%      0.00% |           1    100.00%    100.00% (Unspecified)
system.caches.RequestTypeMachineType.ST.Directory.miss_type_mach_latency_hist_seqr::total            1                       (Unspecified)
system.caches.RequestTypeMachineType.IFETCH.Directory.miss_type_mach_latency_hist_seqr::bucket_size           16                       (Unspecified)
system.caches.RequestTypeMachineType.IFETCH.Directory.miss_type_mach_latency_hist_seqr::max_bucket          159                       (Unspecified)
system.caches.RequestTypeMachineType.IFETCH.Directory.miss_type_mach_latency_hist_seqr::samples            5                       (Unspecified)
system.caches.RequestTypeMachineType.IFETCH.Directory.miss_type_mach_latency_hist_seqr::mean    71.400000                       (Unspecified)
system.caches.RequestTypeMachineType.IFETCH.Directory.miss_type_mach_latency_hist_seqr::gmean    70.831537                       (Unspecified)
system.caches.RequestTypeMachineType.IFETCH.Directory.miss_type_mach_latency_hist_seqr::stdev     9.939819                       (Unspecified)
system.caches.RequestTypeMachineType.IFETCH.Directory.miss_type_mach_latency_hist_seqr |           0      0.00%      0.00% |           0      0.00%      0.00% |           0      0.00%      0.00% |           1     20.00%     20.00% |           3     60.00%     80.00% |           1     20.00%    100.00% |           0      0.00%    100.00% |           0      0.00%    100.00% |           0      0.00%    100.00% |           0      0.00%    100.00% (Unspecified)
system.caches.RequestTypeMachineType.IFETCH.Directory.miss_type_mach_latency_hist_seqr::total            5                       (Unspecified)
system.caches.controllers0.delayHistogram::samples       371422                       # delay_histogram (Unspecified)
system.caches.controllers0.delayHistogram::mean     0.100301                       # delay_histogram (Unspecified)
system.caches.controllers0.delayHistogram::stdev     0.836352                       # delay_histogram (Unspecified)
system.caches.controllers0.delayHistogram::0-3       365772     98.48%     98.48% # delay_histogram (Unspecified)
system.caches.controllers0.delayHistogram::4-7         5210      1.40%     99.88% # delay_histogram (Unspecified)
system.caches.controllers0.delayHistogram::8-11          233      0.06%     99.94% # delay_histogram (Unspecified)
system.caches.controllers0.delayHistogram::12-15           14      0.00%     99.95% # delay_histogram (Unspecified)
system.caches.controllers0.delayHistogram::16-19          159      0.04%     99.99% # delay_histogram (Unspecified)
system.caches.controllers0.delayHistogram::20-23           11      0.00%     99.99% # delay_histogram (Unspecified)
system.caches.controllers0.delayHistogram::24-27           19      0.01%    100.00% # delay_histogram (Unspecified)
system.caches.controllers0.delayHistogram::28-31            2      0.00%    100.00% # delay_histogram (Unspecified)
system.caches.controllers0.delayHistogram::32-35            2      0.00%    100.00% # delay_histogram (Unspecified)
system.caches.controllers0.delayHistogram::total       371422                       # delay_histogram (Unspecified)
system.caches.controllers0.cacheMemory.m_demand_hits      1806109                       # Number of cache demand hits (Unspecified)
system.caches.controllers0.cacheMemory.m_demand_misses       185968                       # Number of cache demand misses (Unspecified)
system.caches.controllers0.cacheMemory.m_demand_accesses      1992077                       # Number of cache demand accesses (Unspecified)
system.caches.controllers0.forwardToCache.m_buf_msgs     0.012329                       # Average number of messages in buffer (Unspecified)
system.caches.controllers0.forwardToCache.m_stall_time  5044.144951                       # Average number of cycles messages are stalled in this MB (Unspecified)
system.caches.controllers0.mandatoryQueue.m_buf_msgs     0.153791                       # Average number of messages in buffer (Unspecified)
system.caches.controllers0.mandatoryQueue.m_stall_time  1086.526395                       # Average number of cycles messages are stalled in this MB (Unspecified)
system.caches.controllers0.power_state.pwrStateResidencyTicks::UNDEFINED  15042196000                       # Cumulative time (in ticks) in various power states (Tick)
system.caches.controllers0.requestFromCache.m_buf_msgs     0.049384                       # Average number of messages in buffer (Unspecified)
system.caches.controllers0.requestFromCache.m_stall_time  1999.999601                       # Average number of cycles messages are stalled in this MB (Unspecified)
system.caches.controllers0.responseToCache.m_buf_msgs     0.012363                       # Average number of messages in buffer (Unspecified)
system.caches.controllers0.responseToCache.m_stall_time  5004.310275                       # Average number of cycles messages are stalled in this MB (Unspecified)
system.caches.controllers1.forwardFromDir.m_buf_msgs     0.012329                       # Average number of messages in buffer (Unspecified)
system.caches.controllers1.forwardFromDir.m_stall_time   999.376753                       # Average number of cycles messages are stalled in this MB (Unspecified)
system.caches.controllers1.power_state.pwrStateResidencyTicks::UNDEFINED  15042196000                       # Cumulative time (in ticks) in various power states (Tick)
system.caches.controllers1.requestToDir.m_buf_msgs     0.024692                       # Average number of messages in buffer (Unspecified)
system.caches.controllers1.requestToDir.m_stall_time  9935.510281                       # Average number of cycles messages are stalled in this MB (Unspecified)
system.caches.controllers1.requestToMemory.m_buf_msgs     0.024693                       # Average number of messages in buffer (Unspecified)
system.caches.controllers1.requestToMemory.m_stall_time  1000.010371                       # Average number of cycles messages are stalled in this MB (Unspecified)
system.caches.controllers1.responseFromDir.m_buf_msgs     0.012363                       # Average number of messages in buffer (Unspecified)
system.caches.controllers1.responseFromDir.m_stall_time   999.995413                       # Average number of cycles messages are stalled in this MB (Unspecified)
system.caches.controllers1.responseFromMemory.m_buf_msgs     0.027940                       # Average number of messages in buffer (Unspecified)
system.caches.controllers1.responseFromMemory.m_stall_time   999.995479                       # Average number of cycles messages are stalled in this MB (Unspecified)
system.caches.network.msg_count.Control        371936                       (Unspecified)
system.caches.network.msg_byte.Control        2975488                       (Unspecified)
system.caches.network.msg_count.Data           370912                       (Unspecified)
system.caches.network.msg_byte.Data          26705664                       (Unspecified)
system.caches.network.msg_count.Response_Data       371934                       (Unspecified)
system.caches.network.msg_byte.Response_Data     26779248                       (Unspecified)
system.caches.network.msg_count.Writeback_Control       370910                       (Unspecified)
system.caches.network.msg_byte.Writeback_Control      2967280                       (Unspecified)
system.caches.network.int_link_buffers2.m_buf_msgs     0.021918                       # Average number of messages in buffer (Unspecified)
system.caches.network.int_link_buffers2.m_stall_time  7824.693059                       # Average number of cycles messages are stalled in this MB (Unspecified)
system.caches.network.int_link_buffers8.m_buf_msgs     0.010959                       # Average number of messages in buffer (Unspecified)
system.caches.network.int_link_buffers8.m_stall_time         3000                       # Average number of cycles messages are stalled in this MB (Unspecified)
system.caches.network.int_link_buffers9.m_buf_msgs     0.010959                       # Average number of messages in buffer (Unspecified)
system.caches.network.int_link_buffers9.m_stall_time         3000                       # Average number of cycles messages are stalled in this MB (Unspecified)
system.caches.network.power_state.pwrStateResidencyTicks::UNDEFINED  15042196000                       # Cumulative time (in ticks) in various power states (Tick)
system.caches.network.routers0.percent_links_utilized     5.479440                       (Unspecified)
system.caches.network.routers0.msg_count.Control::2       185968                       (Unspecified)
system.caches.network.routers0.msg_bytes.Control::2      1487744                       (Unspecified)
system.caches.network.routers0.msg_count.Data::2       185456                       (Unspecified)
system.caches.network.routers0.msg_bytes.Data::2     13352832                       (Unspecified)
system.caches.network.routers0.msg_count.Response_Data::4       185967                       (Unspecified)
system.caches.network.routers0.msg_bytes.Response_Data::4     13389624                       (Unspecified)
system.caches.network.routers0.msg_count.Writeback_Control::3       185455                       (Unspecified)
system.caches.network.routers0.msg_bytes.Writeback_Control::3      1483640                       (Unspecified)
system.caches.network.routers0.port_buffers3.m_buf_msgs     0.012329                       # Average number of messages in buffer (Unspecified)
system.caches.network.routers0.port_buffers3.m_stall_time  4044.768729                       # Average number of cycles messages are stalled in this MB (Unspecified)
system.caches.network.routers0.port_buffers4.m_buf_msgs     0.012363                       # Average number of messages in buffer (Unspecified)
system.caches.network.routers0.port_buffers4.m_stall_time  4004.315394                       # Average number of cycles messages are stalled in this MB (Unspecified)
system.caches.network.routers0.port_buffers7.m_buf_msgs     0.078634                       # Average number of messages in buffer (Unspecified)
system.caches.network.routers0.port_buffers7.m_stall_time  6935.513073                       # Average number of cycles messages are stalled in this MB (Unspecified)
system.caches.network.routers0.power_state.pwrStateResidencyTicks::UNDEFINED  15042196000                       # Cumulative time (in ticks) in various power states (Tick)
system.caches.network.routers0.throttle00.link_utilization     5.479424                       (Unspecified)
system.caches.network.routers0.throttle00.msg_count.Response_Data::4       185967                       (Unspecified)
system.caches.network.routers0.throttle00.msg_bytes.Response_Data::4     13389624                       (Unspecified)
system.caches.network.routers0.throttle00.msg_count.Writeback_Control::3       185455                       (Unspecified)
system.caches.network.routers0.throttle00.msg_bytes.Writeback_Control::3      1483640                       (Unspecified)
system.caches.network.routers0.throttle01.link_utilization     5.479457                       (Unspecified)
system.caches.network.routers0.throttle01.msg_count.Control::2       185968                       (Unspecified)
system.caches.network.routers0.throttle01.msg_bytes.Control::2      1487744                       (Unspecified)
system.caches.network.routers0.throttle01.msg_count.Data::2       185456                       (Unspecified)
system.caches.network.routers0.throttle01.msg_bytes.Data::2     13352832                       (Unspecified)
system.caches.network.routers1.percent_links_utilized     5.479444                       (Unspecified)
system.caches.network.routers1.msg_count.Control::2       185968                       (Unspecified)
system.caches.network.routers1.msg_bytes.Control::2      1487744                       (Unspecified)
system.caches.network.routers1.msg_count.Data::2       185456                       (Unspecified)
system.caches.network.routers1.msg_bytes.Data::2     13352832                       (Unspecified)
system.caches.network.routers1.msg_count.Response_Data::4       185967                       (Unspecified)
system.caches.network.routers1.msg_bytes.Response_Data::4     13389624                       (Unspecified)
system.caches.network.routers1.msg_count.Writeback_Control::3       185455                       (Unspecified)
system.caches.network.routers1.msg_bytes.Writeback_Control::3      1483640                       (Unspecified)
system.caches.network.routers1.port_buffers2.m_buf_msgs     0.024692                       # Average number of messages in buffer (Unspecified)
system.caches.network.routers1.port_buffers2.m_stall_time  8935.511344                       # Average number of cycles messages are stalled in this MB (Unspecified)
system.caches.network.routers1.port_buffers6.m_buf_msgs     0.013479                       # Average number of messages in buffer (Unspecified)
system.caches.network.routers1.port_buffers6.m_stall_time  2046.015888                       # Average number of cycles messages are stalled in this MB (Unspecified)
system.caches.network.routers1.port_buffers7.m_buf_msgs     0.012451                       # Average number of messages in buffer (Unspecified)
system.caches.network.routers1.port_buffers7.m_stall_time  2004.325233                       # Average number of cycles messages are stalled in this MB (Unspecified)
system.caches.network.routers1.power_state.pwrStateResidencyTicks::UNDEFINED  15042196000                       # Cumulative time (in ticks) in various power states (Tick)
system.caches.network.routers1.throttle00.link_utilization     5.479465                       (Unspecified)
system.caches.network.routers1.throttle00.msg_count.Control::2       185968                       (Unspecified)
system.caches.network.routers1.throttle00.msg_bytes.Control::2      1487744                       (Unspecified)
system.caches.network.routers1.throttle00.msg_count.Data::2       185456                       (Unspecified)
system.caches.network.routers1.throttle00.msg_bytes.Data::2     13352832                       (Unspecified)
system.caches.network.routers1.throttle01.link_utilization     5.479424                       (Unspecified)
system.caches.network.routers1.throttle01.msg_count.Response_Data::4       185967                       (Unspecified)
system.caches.network.routers1.throttle01.msg_bytes.Response_Data::4     13389624                       (Unspecified)
system.caches.network.routers1.throttle01.msg_count.Writeback_Control::3       185455                       (Unspecified)
system.caches.network.routers1.throttle01.msg_bytes.Writeback_Control::3      1483640                       (Unspecified)
system.caches.power_state.pwrStateResidencyTicks::UNDEFINED  15042196000                       # Cumulative time (in ticks) in various power states (Tick)
system.caches.sequencers.power_state.pwrStateResidencyTicks::UNDEFINED  15042196000                       # Cumulative time (in ticks) in various power states (Tick)
system.caches.sys_port_proxy.power_state.pwrStateResidencyTicks::UNDEFINED  15042196000                       # Cumulative time (in ticks) in various power states (Tick)
system.clk_domain.clock                          1000                       # Clock period in ticks (Tick)
system.clk_domain.voltage_domain.voltage            1                       # Voltage in Volts (Volt)
system.cpu.numCycles                         11961021                       # Number of cpu cycles simulated (Cycle)
system.cpu.numWorkItemsStarted                      0                       # Number of work items this cpu started (Count)
system.cpu.numWorkItemsCompleted                    0                       # Number of work items this cpu completed (Count)
system.cpu.instsAdded                         8388728                       # Number of instructions added to the IQ (excludes non-spec) (Count)
system.cpu.nonSpecInstsAdded                        1                       # Number of non-speculative instructions added to the IQ (Count)
system.cpu.instsIssued                        8388722                       # Number of instructions issued (Count)
system.cpu.squashedInstsExamined                  111                       # Number of squashed instructions iterated over during squash; mainly for profiling (Count)
system.cpu.squashedOperandsExamined                42                       # Number of squashed operands that are examined and possibly removed from graph (Count)
system.cpu.numIssuedDist::samples            11960907                       # Number of insts issued each cycle (Count)
system.cpu.numIssuedDist::mean               0.701345                       # Number of insts issued each cycle (Count)
system.cpu.numIssuedDist::stdev              1.289707                       # Number of insts issued each cycle (Count)
system.cpu.numIssuedDist::underflows                0      0.00%      0.00% # Number of insts issued each cycle (Count)
system.cpu.numIssuedDist::0                   8334583     69.68%     69.68% # Number of insts issued each cycle (Count)
system.cpu.numIssuedDist::1                   1354407     11.32%     81.01% # Number of insts issued each cycle (Count)
system.cpu.numIssuedDist::2                    961178      8.04%     89.04% # Number of insts issued each cycle (Count)
system.cpu.numIssuedDist::3                    393213      3.29%     92.33% # Number of insts issued each cycle (Count)
system.cpu.numIssuedDist::4                    655352      5.48%     97.81% # Number of insts issued each cycle (Count)
system.cpu.numIssuedDist::5                    262142      2.19%    100.00% # Number of insts issued each cycle (Count)
system.cpu.numIssuedDist::6                        24      0.00%    100.00% # Number of insts issued each cycle (Count)
system.cpu.numIssuedDist::7                         6      0.00%    100.00% # Number of insts issued each cycle (Count)
system.cpu.numIssuedDist::8                         2      0.00%    100.00% # Number of insts issued each cycle (Count)
system.cpu.numIssuedDist::overflows                 0      0.00%    100.00% # Number of insts issued each cycle (Count)
system.cpu.numIssuedDist::min_value                 0                       # Number of insts issued each cycle (Count)
system.cpu.numIssuedDist::max_value                 8                       # Number of insts issued each cycle (Count)
system.cpu.numIssuedDist::total              11960907                       # Number of insts issued each cycle (Count)
system.cpu.statFuBusy::No_OpClass                   0      0.00%      0.00% # attempts to use FU when none available (Count)
system.cpu.statFuBusy::IntAlu                      24    100.00%    100.00% # attempts to use FU when none available (Count)
system.cpu.statFuBusy::IntMult                      0      0.00%    100.00% # attempts to use FU when none available (Count)
system.cpu.statFuBusy::IntDiv                       0      0.00%    100.00% # attempts to use FU when none available (Count)
system.cpu.statFuBusy::FloatAdd                     0      0.00%    100.00% # attempts to use FU when none available (Count)
system.cpu.statFuBusy::FloatCmp                     0      0.00%    100.00% # attempts to use FU when none available (Count)
system.cpu.statFuBusy::FloatCvt                     0      0.00%    100.00% # attempts to use FU when none available (Count)
system.cpu.statFuBusy::FloatMult                    0      0.00%    100.00% # attempts to use FU when none available (Count)
system.cpu.statFuBusy::FloatMultAcc                 0      0.00%    100.00% # attempts to use FU when none available (Count)
system.cpu.statFuBusy::FloatDiv                     0      0.00%    100.00% # attempts to use FU when none available (Count)
system.cpu.statFuBusy::FloatMisc                    0      0.00%    100.00% # attempts to use FU when none available (Count)
system.cpu.statFuBusy::FloatSqrt                    0      0.00%    100.00% # attempts to use FU when none available (Count)
system.cpu.statFuBusy::SimdAdd                      0      0.00%    100.00% # attempts to use FU when none available (Count)
system.cpu.statFuBusy::SimdAddAcc                   0      0.00%    100.00% # attempts to use FU when none available (Count)
system.cpu.statFuBusy::SimdAlu                      0      0.00%    100.00% # attempts to use FU when none available (Count)
system.cpu.statFuBusy::SimdCmp                      0      0.00%    100.00% # attempts to use FU when none available (Count)
system.cpu.statFuBusy::SimdCvt                      0      0.00%    100.00% # attempts to use FU when none available (Count)
system.cpu.statFuBusy::SimdMisc                     0      0.00%    100.00% # attempts to use FU when none available (Count)
system.cpu.statFuBusy::SimdMult                     0      0.00%    100.00% # attempts to use FU when none available (Count)
system.cpu.statFuBusy::SimdMultAcc                  0      0.00%    100.00% # attempts to use FU when none available (Count)
system.cpu.statFuBusy::SimdShift                    0      0.00%    100.00% # attempts to use FU when none available (Count)
system.cpu.statFuBusy::SimdShiftAcc                 0      0.00%    100.00% # attempts to use FU when none available (Count)
system.cpu.statFuBusy::SimdDiv                      0      0.00%    100.00% # attempts to use FU when none available (Count)
system.cpu.statFuBusy::SimdSqrt                     0      0.00%    100.00% # attempts to use FU when none available (Count)
system.cpu.statFuBusy::SimdFloatAdd                 0      0.00%    100.00% # attempts to use FU when none available (Count)
system.cpu.statFuBusy::SimdFloatAlu                 0      0.00%    100.00% # attempts to use FU when none available (Count)
system.cpu.statFuBusy::SimdFloatCmp                 0      0.00%    100.00% # attempts to use FU when none available (Count)
system.cpu.statFuBusy::SimdFloatCvt                 0      0.00%    100.00% # attempts to use FU when none available (Count)
system.cpu.statFuBusy::SimdFloatDiv                 0      0.00%    100.00% # attempts to use FU when none available (Count)
system.cpu.statFuBusy::SimdFloatMisc                0      0.00%    100.00% # attempts to use FU when none available (Count)
system.cpu.statFuBusy::SimdFloatMult                0      0.00%    100.00% # attempts to use FU when none available (Count)
system.cpu.statFuBusy::SimdFloatMultAcc             0      0.00%    100.00% # attempts to use FU when none available (Count)
system.cpu.statFuBusy::SimdFloatSqrt                0      0.00%    100.00% # attempts to use FU when none available (Count)
system.cpu.statFuBusy::SimdReduceAdd                0      0.00%    100.00% # attempts to use FU when none available (Count)
system.cpu.statFuBusy::SimdReduceAlu                0      0.00%    100.00% # attempts to use FU when none available (Count)
system.cpu.statFuBusy::SimdReduceCmp                0      0.00%    100.00% # attempts to use FU when none available (Count)
system.cpu.statFuBusy::SimdFloatReduceAdd            0      0.00%    100.00% # attempts to use FU when none available (Count)
system.cpu.statFuBusy::SimdFloatReduceCmp            0      0.00%    100.00% # attempts to use FU when none available (Count)
system.cpu.statFuBusy::SimdAes                      0      0.00%    100.00% # attempts to use FU when none available (Count)
system.cpu.statFuBusy::SimdAesMix                   0      0.00%    100.00% # attempts to use FU when none available (Count)
system.cpu.statFuBusy::SimdSha1Hash                 0      0.00%    100.00% # attempts to use FU when none available (Count)
system.cpu.statFuBusy::SimdSha1Hash2                0      0.00%    100.00% # attempts to use FU when none available (Count)
system.cpu.statFuBusy::SimdSha256Hash               0      0.00%    100.00% # attempts to use FU when none available (Count)
system.cpu.statFuBusy::SimdSha256Hash2              0      0.00%    100.00% # attempts to use FU when none available (Count)
system.cpu.statFuBusy::SimdShaSigma2                0      0.00%    100.00% # attempts to use FU when none available (Count)
system.cpu.statFuBusy::SimdShaSigma3                0      0.00%    100.00% # attempts to use FU when none available (Count)
system.cpu.statFuBusy::SimdPredAlu                  0      0.00%    100.00% # attempts to use FU when none available (Count)
system.cpu.statFuBusy::MemRead                      0      0.00%    100.00% # attempts to use FU when none available (Count)
system.cpu.statFuBusy::MemWrite                     0      0.00%    100.00% # attempts to use FU when none available (Count)
system.cpu.statFuBusy::FloatMemRead                 0      0.00%    100.00% # attempts to use FU when none available (Count)
system.cpu.statFuBusy::FloatMemWrite                0      0.00%    100.00% # attempts to use FU when none available (Count)
system.cpu.statFuBusy::IprAccess                    0      0.00%    100.00% # attempts to use FU when none available (Count)
system.cpu.statFuBusy::InstPrefetch                 0      0.00%    100.00% # attempts to use FU when none available (Count)
system.cpu.statIssuedInstType_0::No_OpClass            6      0.00%      0.00% # Number of instructions issued per FU type, per thread (Count)
system.cpu.statIssuedInstType_0::IntAlu       7340111     87.50%     87.50% # Number of instructions issued per FU type, per thread (Count)
system.cpu.statIssuedInstType_0::IntMult            0      0.00%     87.50% # Number of instructions issued per FU type, per thread (Count)
system.cpu.statIssuedInstType_0::IntDiv             0      0.00%     87.50% # Number of instructions issued per FU type, per thread (Count)
system.cpu.statIssuedInstType_0::FloatAdd            0      0.00%     87.50% # Number of instructions issued per FU type, per thread (Count)
system.cpu.statIssuedInstType_0::FloatCmp            0      0.00%     87.50% # Number of instructions issued per FU type, per thread (Count)
system.cpu.statIssuedInstType_0::FloatCvt            0      0.00%     87.50% # Number of instructions issued per FU type, per thread (Count)
system.cpu.statIssuedInstType_0::FloatMult            0      0.00%     87.50% # Number of instructions issued per FU type, per thread (Count)
system.cpu.statIssuedInstType_0::FloatMultAcc            0      0.00%     87.50% # Number of instructions issued per FU type, per thread (Count)
system.cpu.statIssuedInstType_0::FloatDiv            0      0.00%     87.50% # Number of instructions issued per FU type, per thread (Count)
system.cpu.statIssuedInstType_0::FloatMisc            0      0.00%     87.50% # Number of instructions issued per FU type, per thread (Count)
system.cpu.statIssuedInstType_0::FloatSqrt            0      0.00%     87.50% # Number of instructions issued per FU type, per thread (Count)
system.cpu.statIssuedInstType_0::SimdAdd            0      0.00%     87.50% # Number of instructions issued per FU type, per thread (Count)
system.cpu.statIssuedInstType_0::SimdAddAcc            0      0.00%     87.50% # Number of instructions issued per FU type, per thread (Count)
system.cpu.statIssuedInstType_0::SimdAlu            0      0.00%     87.50% # Number of instructions issued per FU type, per thread (Count)
system.cpu.statIssuedInstType_0::SimdCmp            0      0.00%     87.50% # Number of instructions issued per FU type, per thread (Count)
system.cpu.statIssuedInstType_0::SimdCvt            0      0.00%     87.50% # Number of instructions issued per FU type, per thread (Count)
system.cpu.statIssuedInstType_0::SimdMisc            0      0.00%     87.50% # Number of instructions issued per FU type, per thread (Count)
system.cpu.statIssuedInstType_0::SimdMult            0      0.00%     87.50% # Number of instructions issued per FU type, per thread (Count)
system.cpu.statIssuedInstType_0::SimdMultAcc            0      0.00%     87.50% # Number of instructions issued per FU type, per thread (Count)
system.cpu.statIssuedInstType_0::SimdShift            0      0.00%     87.50% # Number of instructions issued per FU type, per thread (Count)
system.cpu.statIssuedInstType_0::SimdShiftAcc            0      0.00%     87.50% # Number of instructions issued per FU type, per thread (Count)
system.cpu.statIssuedInstType_0::SimdDiv            0      0.00%     87.50% # Number of instructions issued per FU type, per thread (Count)
system.cpu.statIssuedInstType_0::SimdSqrt            0      0.00%     87.50% # Number of instructions issued per FU type, per thread (Count)
system.cpu.statIssuedInstType_0::SimdFloatAdd            0      0.00%     87.50% # Number of instructions issued per FU type, per thread (Count)
system.cpu.statIssuedInstType_0::SimdFloatAlu            0      0.00%     87.50% # Number of instructions issued per FU type, per thread (Count)
system.cpu.statIssuedInstType_0::SimdFloatCmp            0      0.00%     87.50% # Number of instructions issued per FU type, per thread (Count)
system.cpu.statIssuedInstType_0::SimdFloatCvt            0      0.00%     87.50% # Number of instructions issued per FU type, per thread (Count)
system.cpu.statIssuedInstType_0::SimdFloatDiv            0      0.00%     87.50% # Number of instructions issued per FU type, per thread (Count)
system.cpu.statIssuedInstType_0::SimdFloatMisc            0      0.00%     87.50% # Number of instructions issued per FU type, per thread (Count)
system.cpu.statIssuedInstType_0::SimdFloatMult            0      0.00%     87.50% # Number of instructions issued per FU type, per thread (Count)
system.cpu.statIssuedInstType_0::SimdFloatMultAcc            0      0.00%     87.50% # Number of instructions issued per FU type, per thread (Count)
system.cpu.statIssuedInstType_0::SimdFloatSqrt            0      0.00%     87.50% # Number of instructions issued per FU type, per thread (Count)
system.cpu.statIssuedInstType_0::SimdReduceAdd            0      0.00%     87.50% # Number of instructions issued per FU type, per thread (Count)
system.cpu.statIssuedInstType_0::SimdReduceAlu            0      0.00%     87.50% # Number of instructions issued per FU type, per thread (Count)
system.cpu.statIssuedInstType_0::SimdReduceCmp            0      0.00%     87.50% # Number of instructions issued per FU type, per thread (Count)
system.cpu.statIssuedInstType_0::SimdFloatReduceAdd            0      0.00%     87.50% # Number of instructions issued per FU type, per thread (Count)
system.cpu.statIssuedInstType_0::SimdFloatReduceCmp            0      0.00%     87.50% # Number of instructions issued per FU type, per thread (Count)
system.cpu.statIssuedInstType_0::SimdAes            0      0.00%     87.50% # Number of instructions issued per FU type, per thread (Count)
system.cpu.statIssuedInstType_0::SimdAesMix            0      0.00%     87.50% # Number of instructions issued per FU type, per thread (Count)
system.cpu.statIssuedInstType_0::SimdSha1Hash            0      0.00%     87.50% # Number of instructions issued per FU type, per thread (Count)
system.cpu.statIssuedInstType_0::SimdSha1Hash2            0      0.00%     87.50% # Number of instructions issued per FU type, per thread (Count)
system.cpu.statIssuedInstType_0::SimdSha256Hash            0      0.00%     87.50% # Number of instructions issued per FU type, per thread (Count)
system.cpu.statIssuedInstType_0::SimdSha256Hash2            0      0.00%     87.50% # Number of instructions issued per FU type, per thread (Count)
system.cpu.statIssuedInstType_0::SimdShaSigma2            0      0.00%     87.50% # Number of instructions issued per FU type, per thread (Count)
system.cpu.statIssuedInstType_0::SimdShaSigma3            0      0.00%     87.50% # Number of instructions issued per FU type, per thread (Count)
system.cpu.statIssuedInstType_0::SimdPredAlu            0      0.00%     87.50% # Number of instructions issued per FU type, per thread (Count)
system.cpu.statIssuedInstType_0::MemRead      1048592     12.50%    100.00% # Number of instructions issued per FU type, per thread (Count)
system.cpu.statIssuedInstType_0::MemWrite           13      0.00%    100.00% # Number of instructions issued per FU type, per thread (Count)
system.cpu.statIssuedInstType_0::FloatMemRead            0      0.00%    100.00% # Number of instructions issued per FU type, per thread (Count)
system.cpu.statIssuedInstType_0::FloatMemWrite            0      0.00%    100.00% # Number of instructions issued per FU type, per thread (Count)
system.cpu.statIssuedInstType_0::IprAccess            0      0.00%    100.00% # Number of instructions issued per FU type, per thread (Count)
system.cpu.statIssuedInstType_0::InstPrefetch            0      0.00%    100.00% # Number of instructions issued per FU type, per thread (Count)
system.cpu.statIssuedInstType_0::total        8388722                       # Number of instructions issued per FU type, per thread (Count)
system.cpu.issueRate                         0.701338                       # Inst issue rate ((Count/Cycle))
system.cpu.fuBusy                                  24                       # FU busy when requested (Count)
system.cpu.fuBusyRate                        0.000003                       # FU busy rate (busy events/executed inst) ((Count/Count))
system.cpu.intInstQueueReads                 28738382                       # Number of integer instruction queue reads (Count)
system.cpu.intInstQueueWrites                 8388840                       # Number of integer instruction queue writes (Count)
system.cpu.intInstQueueWakeupAccesses         8388719                       # Number of integer instruction queue wakeup accesses (Count)
system.cpu.fpInstQueueReads                         0                       # Number of floating instruction queue reads (Count)
system.cpu.fpInstQueueWrites                        0                       # Number of floating instruction queue writes (Count)
system.cpu.fpInstQueueWakeupAccesses                0                       # Number of floating instruction queue wakeup accesses (Count)
system.cpu.vecInstQueueReads                        0                       # Number of vector instruction queue reads (Count)
system.cpu.vecInstQueueWrites                       0                       # Number of vector instruction queue writes (Count)
system.cpu.vecInstQueueWakeupAccesses               0                       # Number of vector instruction queue wakeup accesses (Count)
system.cpu.intAluAccesses                     8388740                       # Number of integer alu accesses (Count)
system.cpu.fpAluAccesses                            0                       # Number of floating point alu accesses (Count)
system.cpu.vecAluAccesses                           0                       # Number of vector alu accesses (Count)
system.cpu.idleCycles                               0                       # Number of cycles IEW is idle (Cycle)
system.cpu.squashCycles                             3                       # Number of cycles IEW is squashing (Cycle)
system.cpu.blockCycles                             13                       # Number of cycles IEW is blocking (Cycle)
system.cpu.unblockCycles                            0                       # Number of cycles IEW is unblocking (Cycle)
system.cpu.dispatchedInsts                    8388729                       # Number of instructions dispatched to IQ (Count)
system.cpu.dispSquashedInsts                        0                       # Number of squashed instructions skipped by dispatch (Count)
system.cpu.dispLoadInsts                      1048595                       # Number of dispatched load instructions (Count)
system.cpu.dispStoreInsts                          15                       # Number of dispatched store instructions (Count)
system.cpu.dispNonSpecInsts                         1                       # Number of dispatched non-speculative instructions (Count)
system.cpu.iqFullEvents                             0                       # Number of times the IQ has become full, causing a stall (Count)
system.cpu.lsqFullEvents                            0                       # Number of times the LSQ has become full, causing a stall (Count)
system.cpu.memOrderViolationEvents                  0                       # Number of memory order violations (Count)
system.cpu.predictedTakenIncorrect                  1                       # Number of branches that were predicted taken incorrectly (Count)
system.cpu.predictedNotTakenIncorrect               4                       # Number of branches that were predicted not taken incorrectly (Count)
system.cpu.branchMispredicts                        5                       # Number of branch mispredicts detected at execute (Count)
system.cpu.numInsts                           8388725                       # Number of executed instructions (Count)
system.cpu.numLoadInsts                       1048593                       # Number of load instructions executed (Count)
system.cpu.numSquashedInsts                         4                       # Number of squashed instructions skipped in execute (Count)
system.cpu.numSwp                                   0                       # Number of swp insts executed (Count)
system.cpu.numNop                                   0                       # Number of nop insts executed (Count)
system.cpu.numRefs                            1048605                       # Number of memory reference insts executed (Count)
system.cpu.numBranches                        1048597                       # Number of branches executed (Count)
system.cpu.numStoreInsts                           12                       # Number of stores executed (Count)
system.cpu.numRate                           0.701339                       # Inst execution rate ((Count/Cycle))
system.cpu.instsToCommit                      8388725                       # Cumulative count of insts sent to commit (Count)
system.cpu.writebackCount                     8388719                       # Cumulative count of insts written-back (Count)
system.cpu.producerInst                       7165331                       # Number of instructions producing a value (Count)
system.cpu.consumerInst                       8519766                       # Number of instructions consuming a value (Count)
system.cpu.wbRate                            0.701338                       # Insts written-back per cycle ((Count/Cycle))
system.cpu.wbFanout                          0.841024                       # Average fanout of values written-back ((Count/Count))
system.cpu.timesIdled                               3                       # Number of times that the entire CPU went into an idle state and unscheduled itself (Count)
system.cpu.idleCycles                             114                       # Total number of cycles that the CPU has spent unscheduled due to idling (Cycle)
system.cpu.committedInsts                     4194313                       # Number of Instructions Simulated (Count)
system.cpu.committedOps                       8388625                       # Number of Ops (including micro ops) Simulated (Count)
system.cpu.cpi                               2.851724                       # CPI: Cycles Per Instruction ((Cycle/Count))
system.cpu.totalCpi                          2.851724                       # CPI: Total CPI of All Threads ((Cycle/Count))
system.cpu.ipc                               0.350665                       # IPC: Instructions Per Cycle ((Count/Cycle))
system.cpu.totalIpc                          0.350665                       # IPC: Total IPC of All Threads ((Count/Cycle))
system.cpu.intRegfileReads                    8388733                       # Number of integer regfile reads (Count)
system.cpu.intRegfileWrites                   7340109                       # Number of integer regfile writes (Count)
system.cpu.ccRegfileReads                     5242888                       # number of cc regfile reads (Count)
system.cpu.ccRegfileWrites                    4194312                       # number of cc regfile writes (Count)
system.cpu.miscRegfileReads                   3145805                       # number of misc regfile reads (Count)
system.cpu.MemDepUnit__0.insertedLoads        1048595                       # Number of loads inserted to the mem dependence unit. (Count)
system.cpu.MemDepUnit__0.insertedStores            15                       # Number of stores inserted to the mem dependence unit. (Count)
system.cpu.MemDepUnit__0.conflictingLoads            0                       # Number of conflicting loads. (Count)
system.cpu.MemDepUnit__0.conflictingStores            0                       # Number of conflicting stores. (Count)
system.cpu.MemDepUnit__1.insertedLoads              0                       # Number of loads inserted to the mem dependence unit. (Count)
system.cpu.MemDepUnit__1.insertedStores             0                       # Number of stores inserted to the mem dependence unit. (Count)
system.cpu.MemDepUnit__1.conflictingLoads            0                       # Number of conflicting loads. (Count)
system.cpu.MemDepUnit__1.conflictingStores            0                       # Number of conflicting stores. (Count)
system.cpu.MemDepUnit__2.insertedLoads              0                       # Number of loads inserted to the mem dependence unit. (Count)
system.cpu.MemDepUnit__2.insertedStores             0                       # Number of stores inserted to the mem dependence unit. (Count)
system.cpu.MemDepUnit__2.conflictingLoads            0                       # Number of conflicting loads. (Count)
system.cpu.MemDepUnit__2.conflictingStores            0                       # Number of conflicting stores. (Count)
system.cpu.MemDepUnit__3.insertedLoads              0                       # Number of loads inserted to the mem dependence unit. (Count)
system.cpu.MemDepUnit__3.insertedStores             0                       # Number of stores inserted to the mem dependence unit. (Count)
system.cpu.MemDepUnit__3.conflictingLoads            0                       # Number of conflicting loads. (Count)
system.cpu.MemDepUnit__3.conflictingStores            0                       # Number of conflicting stores. (Count)
system.cpu.branchPred.lookups                 1048609                       # Number of BP lookups (Count)
system.cpu.branchPred.condPredicted           1048581                       # Number of conditional branches predicted (Count)
system.cpu.branchPred.condIncorrect                 5                       # Number of conditional branches incorrect (Count)
system.cpu.branchPred.BTBLookups              1048592                       # Number of BTB lookups (Count)
system.cpu.branchPred.BTBHits                 1048589                       # Number of BTB hits (Count)
system.cpu.branchPred.BTBHitRatio            0.999997                       # BTB Hit Ratio (Ratio)
system.cpu.branchPred.RASUsed                       1                       # Number of times the RAS was used to get a target. (Count)
system.cpu.branchPred.RASIncorrect                  0                       # Number of incorrect RAS predictions. (Count)
system.cpu.branchPred.indirectLookups              16                       # Number of indirect predictor lookups. (Count)
system.cpu.branchPred.indirectHits                  0                       # Number of indirect target hits. (Count)
system.cpu.branchPred.indirectMisses               16                       # Number of indirect misses. (Count)
system.cpu.branchPred.indirectMispredicted            1                       # Number of mispredicted indirect branches. (Count)
system.cpu.commit.commitSquashedInsts               3                       # The number of squashed insts skipped by commit (Count)
system.cpu.commit.commitNonSpecStalls               1                       # The number of times commit has been forced to stall to communicate backwards (Count)
system.cpu.commit.branchMispredicts                 3                       # The number of times a branch was mispredicted (Count)
system.cpu.commit.numCommittedDist::samples     11960891                       # Number of insts commited each cycle (Count)
system.cpu.commit.numCommittedDist::mean     0.701338                       # Number of insts commited each cycle (Count)
system.cpu.commit.numCommittedDist::stdev     2.262482                       # Number of insts commited each cycle (Count)
system.cpu.commit.numCommittedDist::underflows            0      0.00%      0.00% # Number of insts commited each cycle (Count)
system.cpu.commit.numCommittedDist::0        10912311     91.23%     91.23% # Number of insts commited each cycle (Count)
system.cpu.commit.numCommittedDist::1               1      0.00%     91.23% # Number of insts commited each cycle (Count)
system.cpu.commit.numCommittedDist::2               0      0.00%     91.23% # Number of insts commited each cycle (Count)
system.cpu.commit.numCommittedDist::3               1      0.00%     91.23% # Number of insts commited each cycle (Count)
system.cpu.commit.numCommittedDist::4               0      0.00%     91.23% # Number of insts commited each cycle (Count)
system.cpu.commit.numCommittedDist::5               1      0.00%     91.23% # Number of insts commited each cycle (Count)
system.cpu.commit.numCommittedDist::6               0      0.00%     91.23% # Number of insts commited each cycle (Count)
system.cpu.commit.numCommittedDist::7               0      0.00%     91.23% # Number of insts commited each cycle (Count)
system.cpu.commit.numCommittedDist::8         1048577      8.77%    100.00% # Number of insts commited each cycle (Count)
system.cpu.commit.numCommittedDist::overflows            0      0.00%    100.00% # Number of insts commited each cycle (Count)
system.cpu.commit.numCommittedDist::min_value            0                       # Number of insts commited each cycle (Count)
system.cpu.commit.numCommittedDist::max_value            8                       # Number of insts commited each cycle (Count)
system.cpu.commit.numCommittedDist::total     11960891                       # Number of insts commited each cycle (Count)
system.cpu.commit.instsCommitted              4194313                       # Number of instructions committed (Count)
system.cpu.commit.opsCommitted                8388625                       # Number of ops (including micro ops) committed (Count)
system.cpu.commit.memRefs                     1048578                       # Number of memory references committed (Count)
system.cpu.commit.loads                       1048577                       # Number of loads committed (Count)
system.cpu.commit.amos                              0                       # Number of atomic instructions committed (Count)
system.cpu.commit.membars                           0                       # Number of memory barriers committed (Count)
system.cpu.commit.branches                    1048579                       # Number of branches committed (Count)
system.cpu.commit.vectorInstructions                0                       # Number of committed Vector instructions. (Count)
system.cpu.commit.floating                          0                       # Number of committed floating point instructions. (Count)
system.cpu.commit.integer                     8388623                       # Number of committed integer instructions. (Count)
system.cpu.commit.functionCalls                     1                       # Number of function calls committed. (Count)
system.cpu.commit.committedInstType_0::No_OpClass            1      0.00%      0.00% # Class of committed instruction (Count)
system.cpu.commit.committedInstType_0::IntAlu      7340046     87.50%     87.50% # Class of committed instruction (Count)
system.cpu.commit.committedInstType_0::IntMult            0      0.00%     87.50% # Class of committed instruction (Count)
system.cpu.commit.committedInstType_0::IntDiv            0      0.00%     87.50% # Class of committed instruction (Count)
system.cpu.commit.committedInstType_0::FloatAdd            0      0.00%     87.50% # Class of committed instruction (Count)
system.cpu.commit.committedInstType_0::FloatCmp            0      0.00%     87.50% # Class of committed instruction (Count)
system.cpu.commit.committedInstType_0::FloatCvt            0      0.00%     87.50% # Class of committed instruction (Count)
system.cpu.commit.committedInstType_0::FloatMult            0      0.00%     87.50% # Class of committed instruction (Count)
system.cpu.commit.committedInstType_0::FloatMultAcc            0      0.00%     87.50% # Class of committed instruction (Count)
system.cpu.commit.committedInstType_0::FloatDiv            0      0.00%     87.50% # Class of committed instruction (Count)
system.cpu.commit.committedInstType_0::FloatMisc            0      0.00%     87.50% # Class of committed instruction (Count)
system.cpu.commit.committedInstType_0::FloatSqrt            0      0.00%     87.50% # Class of committed instruction (Count)
system.cpu.commit.committedInstType_0::SimdAdd            0      0.00%     87.50% # Class of committed instruction (Count)
system.cpu.commit.committedInstType_0::SimdAddAcc            0      0.00%     87.50% # Class of committed instruction (Count)
system.cpu.commit.committedInstType_0::SimdAlu            0      0.00%     87.50% # Class of committed instruction (Count)
system.cpu.commit.committedInstType_0::SimdCmp            0      0.00%     87.50% # Class of committed instruction (Count)
system.cpu.commit.committedInstType_0::SimdCvt            0      0.00%     87.50% # Class of committed instruction (Count)
system.cpu.commit.committedInstType_0::SimdMisc            0      0.00%     87.50% # Class of committed instruction (Count)
system.cpu.commit.committedInstType_0::SimdMult            0      0.00%     87.50% # Class of committed instruction (Count)
system.cpu.commit.committedInstType_0::SimdMultAcc            0      0.00%     87.50% # Class of committed instruction (Count)
system.cpu.commit.committedInstType_0::SimdShift            0      0.00%     87.50% # Class of committed instruction (Count)
system.cpu.commit.committedInstType_0::SimdShiftAcc            0      0.00%     87.50% # Class of committed instruction (Count)
system.cpu.commit.committedInstType_0::SimdDiv            0      0.00%     87.50% # Class of committed instruction (Count)
system.cpu.commit.committedInstType_0::SimdSqrt            0      0.00%     87.50% # Class of committed instruction (Count)
system.cpu.commit.committedInstType_0::SimdFloatAdd            0      0.00%     87.50% # Class of committed instruction (Count)
system.cpu.commit.committedInstType_0::SimdFloatAlu            0      0.00%     87.50% # Class of committed instruction (Count)
system.cpu.commit.committedInstType_0::SimdFloatCmp            0      0.00%     87.50% # Class of committed instruction (Count)
system.cpu.commit.committedInstType_0::SimdFloatCvt            0      0.00%     87.50% # Class of committed instruction (Count)
system.cpu.commit.committedInstType_0::SimdFloatDiv            0      0.00%     87.50% # Class of committed instruction (Count)
system.cpu.commit.committedInstType_0::SimdFloatMisc            0      0.00%     87.50% # Class of committed instruction (Count)
system.cpu.commit.committedInstType_0::SimdFloatMult            0      0.00%     87.50% # Class of committed instruction (Count)
system.cpu.commit.committedInstType_0::SimdFloatMultAcc            0      0.00%     87.50% # Class of committed instruction (Count)
system.cpu.commit.committedInstType_0::SimdFloatSqrt            0      0.00%     87.50% # Class of committed instruction (Count)
system.cpu.commit.committedInstType_0::SimdReduceAdd            0      0.00%     87.50% # Class of committed instruction (Count)
system.cpu.commit.committedInstType_0::SimdReduceAlu            0      0.00%     87.50% # Class of committed instruction (Count)
system.cpu.commit.committedInstType_0::SimdReduceCmp            0      0.00%     87.50% # Class of committed instruction (Count)
system.cpu.commit.committedInstType_0::SimdFloatReduceAdd            0      0.00%     87.50% # Class of committed instruction (Count)
system.cpu.commit.committedInstType_0::SimdFloatReduceCmp            0      0.00%     87.50% # Class of committed instruction (Count)
system.cpu.commit.committedInstType_0::SimdAes            0      0.00%     87.50% # Class of committed instruction (Count)
system.cpu.commit.committedInstType_0::SimdAesMix            0      0.00%     87.50% # Class of committed instruction (Count)
system.cpu.commit.committedInstType_0::SimdSha1Hash            0      0.00%     87.50% # Class of committed instruction (Count)
system.cpu.commit.committedInstType_0::SimdSha1Hash2            0      0.00%     87.50% # Class of committed instruction (Count)
system.cpu.commit.committedInstType_0::SimdSha256Hash            0      0.00%     87.50% # Class of committed instruction (Count)
system.cpu.commit.committedInstType_0::SimdSha256Hash2            0      0.00%     87.50% # Class of committed instruction (Count)
system.cpu.commit.committedInstType_0::SimdShaSigma2            0      0.00%     87.50% # Class of committed instruction (Count)
system.cpu.commit.committedInstType_0::SimdShaSigma3            0      0.00%     87.50% # Class of committed instruction (Count)
system.cpu.commit.committedInstType_0::SimdPredAlu            0      0.00%     87.50% # Class of committed instruction (Count)
system.cpu.commit.committedInstType_0::MemRead      1048577     12.50%    100.00% # Class of committed instruction (Count)
system.cpu.commit.committedInstType_0::MemWrite            1      0.00%    100.00% # Class of committed instruction (Count)
system.cpu.commit.committedInstType_0::FloatMemRead            0      0.00%    100.00% # Class of committed instruction (Count)
system.cpu.commit.committedInstType_0::FloatMemWrite            0      0.00%    100.00% # Class of committed instruction (Count)
system.cpu.commit.committedInstType_0::IprAccess            0      0.00%    100.00% # Class of committed instruction (Count)
system.cpu.commit.committedInstType_0::InstPrefetch            0      0.00%    100.00% # Class of committed instruction (Count)
system.cpu.commit.committedInstType_0::total      8388625                       # Class of committed instruction (Count)
system.cpu.commit.commitEligibleSamples       1048577                       # number cycles where commit BW limit reached (Cycle)
system.cpu.decode.idleCycles                   349676                       # Number of cycles decode is idle (Cycle)
system.cpu.decode.blockedCycles              10562623                       # Number of cycles decode is blocked (Cycle)
system.cpu.decode.runCycles                        51                       # Number of cycles decode is running (Cycle)
system.cpu.decode.unblockCycles               1048554                       # Number of cycles decode is unblocking (Cycle)
[...]
system.mem_ctrl.rdPerTurnAround::13                20      0.03%      0.07% # Reads before turning the bus around for writes (Count)
system.mem_ctrl.rdPerTurnAround::14                23      0.04%      0.10% # Reads before turning the bus around for writes (Count)
system.mem_ctrl.rdPerTurnAround::15                38      0.06%      0.16% # Reads before turning the bus around for writes (Count)
system.mem_ctrl.rdPerTurnAround::16             65527     99.75%     99.91% # Reads before turning the bus around for writes (Count)
system.mem_ctrl.rdPerTurnAround::17                56      0.09%     99.99% # Reads before turning the bus around for writes (Count)
system.mem_ctrl.rdPerTurnAround::18                 3      0.00%    100.00% # Reads before turning the bus around for writes (Count)
system.mem_ctrl.rdPerTurnAround::19                 2      0.00%    100.00% # Reads before turning the bus around for writes (Count)
system.mem_ctrl.rdPerTurnAround::total          65694                       # Reads before turning the bus around for writes (Count)
system.mem_ctrl.wrPerTurnAround::samples        65694                       # Writes before turning the bus around for reads (Count)
system.mem_ctrl.wrPerTurnAround::mean       16.001248                       # Writes before turning the bus around for reads (Count)
system.mem_ctrl.wrPerTurnAround::gmean      16.001182                       # Writes before turning the bus around for reads (Count)
system.mem_ctrl.wrPerTurnAround::stdev       0.048401                       # Writes before turning the bus around for reads (Count)
system.mem_ctrl.wrPerTurnAround::16             65633     99.91%     99.91% # Writes before turning the bus around for reads (Count)
system.mem_ctrl.wrPerTurnAround::17                51      0.08%     99.98% # Writes before turning the bus around for reads (Count)
system.mem_ctrl.wrPerTurnAround::18                 3      0.00%     99.99% # Writes before turning the bus around for reads (Count)
system.mem_ctrl.wrPerTurnAround::19                 3      0.00%     99.99% # Writes before turning the bus around for reads (Count)
system.mem_ctrl.wrPerTurnAround::20                 4      0.01%    100.00% # Writes before turning the bus around for reads (Count)
system.mem_ctrl.wrPerTurnAround::total          65694                       # Writes before turning the bus around for reads (Count)
system.mem_ctrl.bytesReadWrQ                    45824                       # Total number of bytes read from write queue (Byte)
system.mem_ctrl.bytesReadSys                 67303488                       # Total read bytes from the system interface side (Byte)
system.mem_ctrl.bytesWrittenSys              67303488                       # Total written bytes from the system interface side (Byte)
system.mem_ctrl.avgRdBWSys               936734687.06053686                       # Average system read bandwidth in Byte/s ((Byte/Second))
system.mem_ctrl.avgWrBWSys               936734687.06053686                       # Average system write bandwidth in Byte/s ((Byte/Second))
system.mem_ctrl.totGap                    71849034000                       # Total gap between requests (Tick)
system.mem_ctrl.avgGap                       34161.22                       # Average gap between requests ((Tick/Count))
system.mem_ctrl.requestorReadBytes::caches.controllers1     67257664                       # Per-requestor bytes read from memory (Byte)
system.mem_ctrl.requestorWriteBytes::caches.controllers1     67275904                       # Per-requestor bytes write to memory (Byte)
system.mem_ctrl.requestorReadRate::caches.controllers1 936096905.400545358658                       # Per-requestor bytes read from memory rate ((Byte/Second))
system.mem_ctrl.requestorWriteRate::caches.controllers1 936350771.005430221558                       # Per-requestor bytes write to memory rate ((Byte/Second))
system.mem_ctrl.requestorReadAccesses::caches.controllers1      1051617                       # Per-requestor read serviced memory accesses (Count)
system.mem_ctrl.requestorWriteAccesses::caches.controllers1      1051617                       # Per-requestor write serviced memory accesses (Count)
system.mem_ctrl.requestorReadTotalLat::caches.controllers1  29595560000                       # Per-requestor read total memory access latency (Tick)
system.mem_ctrl.requestorWriteTotalLat::caches.controllers1 1775432743500                       # Per-requestor write total memory access latency (Tick)
system.mem_ctrl.requestorReadAvgLat::caches.controllers1     28142.91                       # Per-requestor read average memory access latency ((Tick/Count))
system.mem_ctrl.requestorWriteAvgLat::caches.controllers1   1688288.36                       # Per-requestor write average memory access latency ((Tick/Count))
system.mem_ctrl.dram.bytesRead::caches.controllers1     67303488                       # Number of bytes read from this memory (Byte)
system.mem_ctrl.dram.bytesRead::total        67303488                       # Number of bytes read from this memory (Byte)
system.mem_ctrl.dram.bytesWritten::caches.controllers1     67303488                       # Number of bytes written to this memory (Byte)
system.mem_ctrl.dram.bytesWritten::total     67303488                       # Number of bytes written to this memory (Byte)
system.mem_ctrl.dram.numReads::caches.controllers1      1051617                       # Number of read requests responded to by this memory (Count)
system.mem_ctrl.dram.numReads::total          1051617                       # Number of read requests responded to by this memory (Count)
system.mem_ctrl.dram.numWrites::caches.controllers1      1051617                       # Number of write requests responded to by this memory (Count)
system.mem_ctrl.dram.numWrites::total         1051617                       # Number of write requests responded to by this memory (Count)
system.mem_ctrl.dram.bwRead::caches.controllers1    936734687                       # Total read bandwidth from this memory ((Byte/Second))
system.mem_ctrl.dram.bwRead::total          936734687                       # Total read bandwidth from this memory ((Byte/Second))
system.mem_ctrl.dram.bwWrite::caches.controllers1    936734687                       # Write bandwidth from this memory ((Byte/Second))
system.mem_ctrl.dram.bwWrite::total         936734687                       # Write bandwidth from this memory ((Byte/Second))
system.mem_ctrl.dram.bwTotal::caches.controllers1   1873469374                       # Total bandwidth to/from this memory ((Byte/Second))
system.mem_ctrl.dram.bwTotal::total        1873469374                       # Total bandwidth to/from this memory ((Byte/Second))
system.mem_ctrl.dram.readBursts               1050901                       # Number of DRAM read bursts (Count)
system.mem_ctrl.dram.writeBursts              1051186                       # Number of DRAM write bursts (Count)
system.mem_ctrl.dram.perBankRdBursts::0         65841                       # Per bank write bursts (Count)
system.mem_ctrl.dram.perBankRdBursts::1         65736                       # Per bank write bursts (Count)
system.mem_ctrl.dram.perBankRdBursts::2         65600                       # Per bank write bursts (Count)
system.mem_ctrl.dram.perBankRdBursts::3         65679                       # Per bank write bursts (Count)
system.mem_ctrl.dram.perBankRdBursts::4         65676                       # Per bank write bursts (Count)
system.mem_ctrl.dram.perBankRdBursts::5         65703                       # Per bank write bursts (Count)
system.mem_ctrl.dram.perBankRdBursts::6         65727                       # Per bank write bursts (Count)
system.mem_ctrl.dram.perBankRdBursts::7         65611                       # Per bank write bursts (Count)
system.mem_ctrl.dram.perBankRdBursts::8         65699                       # Per bank write bursts (Count)
system.mem_ctrl.dram.perBankRdBursts::9         65694                       # Per bank write bursts (Count)
system.mem_ctrl.dram.perBankRdBursts::10        65719                       # Per bank write bursts (Count)
system.mem_ctrl.dram.perBankRdBursts::11        65655                       # Per bank write bursts (Count)
system.mem_ctrl.dram.perBankRdBursts::12        65618                       # Per bank write bursts (Count)
system.mem_ctrl.dram.perBankRdBursts::13        65621                       # Per bank write bursts (Count)
system.mem_ctrl.dram.perBankRdBursts::14        65605                       # Per bank write bursts (Count)
system.mem_ctrl.dram.perBankRdBursts::15        65717                       # Per bank write bursts (Count)
system.mem_ctrl.dram.perBankWrBursts::0         65896                       # Per bank write bursts (Count)
system.mem_ctrl.dram.perBankWrBursts::1         65756                       # Per bank write bursts (Count)
system.mem_ctrl.dram.perBankWrBursts::2         65605                       # Per bank write bursts (Count)
system.mem_ctrl.dram.perBankWrBursts::3         65704                       # Per bank write bursts (Count)
system.mem_ctrl.dram.perBankWrBursts::4         65697                       # Per bank write bursts (Count)
system.mem_ctrl.dram.perBankWrBursts::5         65733                       # Per bank write bursts (Count)
system.mem_ctrl.dram.perBankWrBursts::6         65765                       # Per bank write bursts (Count)
system.mem_ctrl.dram.perBankWrBursts::7         65668                       # Per bank write bursts (Count)
system.mem_ctrl.dram.perBankWrBursts::8         65711                       # Per bank write bursts (Count)
system.mem_ctrl.dram.perBankWrBursts::9         65702                       # Per bank write bursts (Count)
system.mem_ctrl.dram.perBankWrBursts::10        65730                       # Per bank write bursts (Count)
system.mem_ctrl.dram.perBankWrBursts::11        65627                       # Per bank write bursts (Count)
system.mem_ctrl.dram.perBankWrBursts::12        65625                       # Per bank write bursts (Count)
system.mem_ctrl.dram.perBankWrBursts::13        65629                       # Per bank write bursts (Count)
system.mem_ctrl.dram.perBankWrBursts::14        65610                       # Per bank write bursts (Count)
system.mem_ctrl.dram.perBankWrBursts::15        65728                       # Per bank write bursts (Count)
system.mem_ctrl.dram.totQLat               9891166250                       # Total ticks spent queuing (Tick)
system.mem_ctrl.dram.totBusLat             5254505000                       # Total ticks spent in databus transfers (Tick)
system.mem_ctrl.dram.totMemAccLat         29595560000                       # Total ticks spent from burst creation until serviced by the DRAM (Tick)
system.mem_ctrl.dram.avgQLat                  9412.08                       # Average queueing delay per DRAM burst ((Tick/Count))
system.mem_ctrl.dram.avgBusLat                5000.00                       # Average bus latency per DRAM burst ((Tick/Count))
system.mem_ctrl.dram.avgMemAccLat            28162.08                       # Average memory access latency per DRAM burst ((Tick/Count))
system.mem_ctrl.dram.readRowHits               967152                       # Number of row buffer hits during reads (Count)
system.mem_ctrl.dram.writeRowHits              983891                       # Number of row buffer hits during writes (Count)
system.mem_ctrl.dram.readRowHitRate             92.03                       # Row buffer hit rate for reads (Ratio)
system.mem_ctrl.dram.writeRowHitRate            93.60                       # Row buffer hit rate for writes (Ratio)
system.mem_ctrl.dram.bytesPerActivate::samples       151039                       # Bytes accessed per row activation (Byte)
system.mem_ctrl.dram.bytesPerActivate::mean   890.713101                       # Bytes accessed per row activation (Byte)
system.mem_ctrl.dram.bytesPerActivate::gmean   779.043993                       # Bytes accessed per row activation (Byte)
system.mem_ctrl.dram.bytesPerActivate::stdev   282.925319                       # Bytes accessed per row activation (Byte)
system.mem_ctrl.dram.bytesPerActivate::0-127         6392      4.23%      4.23% # Bytes accessed per row activation (Byte)
system.mem_ctrl.dram.bytesPerActivate::128-255         4461      2.95%      7.19% # Bytes accessed per row activation (Byte)
system.mem_ctrl.dram.bytesPerActivate::256-383         3683      2.44%      9.62% # Bytes accessed per row activation (Byte)
system.mem_ctrl.dram.bytesPerActivate::384-511         4030      2.67%     12.29% # Bytes accessed per row activation (Byte)
system.mem_ctrl.dram.bytesPerActivate::512-639         3882      2.57%     14.86% # Bytes accessed per row activation (Byte)
system.mem_ctrl.dram.bytesPerActivate::640-767         3200      2.12%     16.98% # Bytes accessed per row activation (Byte)
system.mem_ctrl.dram.bytesPerActivate::768-895         3264      2.16%     19.14% # Bytes accessed per row activation (Byte)
system.mem_ctrl.dram.bytesPerActivate::896-1023         9110      6.03%     25.17% # Bytes accessed per row activation (Byte)
system.mem_ctrl.dram.bytesPerActivate::1024-1151       113017     74.83%    100.00% # Bytes accessed per row activation (Byte)
system.mem_ctrl.dram.bytesPerActivate::total       151039                       # Bytes accessed per row activation (Byte)
system.mem_ctrl.dram.bytesRead               67257664                       # Total number of bytes read from DRAM (Byte)
system.mem_ctrl.dram.bytesWritten            67275904                       # Total number of bytes written to DRAM (Byte)
system.mem_ctrl.dram.avgRdBW               936.096905                       # Average DRAM read bandwidth in MiBytes/s ((Byte/Second))
system.mem_ctrl.dram.avgWrBW               936.350771                       # Average DRAM write bandwidth in MiBytes/s ((Byte/Second))
system.mem_ctrl.dram.peakBW                  12800.00                       # Theoretical peak bandwidth in MiByte/s ((Byte/Second))
system.mem_ctrl.dram.busUtil                    14.63                       # Data bus utilization in percentage (Ratio)
system.mem_ctrl.dram.busUtilRead                 7.31                       # Data bus utilization in percentage for reads (Ratio)
system.mem_ctrl.dram.busUtilWrite                7.32                       # Data bus utilization in percentage for writes (Ratio)
system.mem_ctrl.dram.pageHitRate                92.81                       # Row buffer hit rate, read and write combined (Ratio)
system.mem_ctrl.dram.power_state.pwrStateResidencyTicks::UNDEFINED 107383846000                       # Cumulative time (in ticks) in various power states (Tick)
system.mem_ctrl.dram.rank0.actEnergy        536371080                       # Energy for activate commands per rank (pJ) (Joule)
system.mem_ctrl.dram.rank0.preEnergy        285065220                       # Energy for precharge commands per rank (pJ) (Joule)
system.mem_ctrl.dram.rank0.readEnergy      3753276660                       # Energy for read commands per rank (pJ) (Joule)
system.mem_ctrl.dram.rank0.writeEnergy     2745307620                       # Energy for write commands per rank (pJ) (Joule)
system.mem_ctrl.dram.rank0.refreshEnergy 5671897920.000001                       # Energy for refresh commands per rank (pJ) (Joule)
system.mem_ctrl.dram.rank0.actBackEnergy  26986837530                       # Energy for active background per rank (pJ) (Joule)
system.mem_ctrl.dram.rank0.preBackEnergy   4866412800                       # Energy for precharge background per rank (pJ) (Joule)
system.mem_ctrl.dram.rank0.actPowerDownEnergy            0                       # Energy for active power-down per rank (pJ) (Joule)
system.mem_ctrl.dram.rank0.prePowerDownEnergy            0                       # Energy for precharge power-down per rank (pJ) (Joule)
system.mem_ctrl.dram.rank0.selfRefreshEnergy            0                       # Energy for self refresh per rank (pJ) (Joule)
system.mem_ctrl.dram.rank0.totalEnergy    44845168830                       # Total energy per rank (pJ) (Joule)
system.mem_ctrl.dram.rank0.averagePower    624.158219                       # Core power per rank (mW) (Watt)
system.mem_ctrl.dram.rank0.totalIdleTime            0                       # Total Idle time Per DRAM Rank (Tick)
system.mem_ctrl.dram.rank0.pwrStateTime::IDLE  12333392000                       # Time in different power states (Tick)
system.mem_ctrl.dram.rank0.pwrStateTime::REF   2399280000                       # Time in different power states (Tick)
system.mem_ctrl.dram.rank0.pwrStateTime::SREF            0                       # Time in different power states (Tick)
system.mem_ctrl.dram.rank0.pwrStateTime::PRE_PDN            0                       # Time in different power states (Tick)
system.mem_ctrl.dram.rank0.pwrStateTime::ACT  57121938500                       # Time in different power states (Tick)
system.mem_ctrl.dram.rank0.pwrStateTime::ACT_PDN            0                       # Time in different power states (Tick)
system.mem_ctrl.dram.rank1.actEnergy        542340120                       # Energy for activate commands per rank (pJ) (Joule)
system.mem_ctrl.dram.rank1.preEnergy        288230250                       # Energy for precharge commands per rank (pJ) (Joule)
system.mem_ctrl.dram.rank1.readEnergy      3750884760                       # Energy for read commands per rank (pJ) (Joule)
system.mem_ctrl.dram.rank1.writeEnergy     2742389640                       # Energy for write commands per rank (pJ) (Joule)
system.mem_ctrl.dram.rank1.refreshEnergy 5671897920.000001                       # Energy for refresh commands per rank (pJ) (Joule)
system.mem_ctrl.dram.rank1.actBackEnergy  27292847160                       # Energy for active background per rank (pJ) (Joule)
system.mem_ctrl.dram.rank1.preBackEnergy   4607557440                       # Energy for precharge background per rank (pJ) (Joule)
system.mem_ctrl.dram.rank1.actPowerDownEnergy            0                       # Energy for active power-down per rank (pJ) (Joule)
system.mem_ctrl.dram.rank1.prePowerDownEnergy            0                       # Energy for precharge power-down per rank (pJ) (Joule)
system.mem_ctrl.dram.rank1.selfRefreshEnergy            0                       # Energy for self refresh per rank (pJ) (Joule)
system.mem_ctrl.dram.rank1.totalEnergy    44896147290                       # Total energy per rank (pJ) (Joule)
system.mem_ctrl.dram.rank1.averagePower    624.867741                       # Core power per rank (mW) (Watt)
system.mem_ctrl.dram.rank1.totalIdleTime            0                       # Total Idle time Per DRAM Rank (Tick)
system.mem_ctrl.dram.rank1.pwrStateTime::IDLE  11633615250                       # Time in different power states (Tick)
system.mem_ctrl.dram.rank1.pwrStateTime::REF   2399280000                       # Time in different power states (Tick)
system.mem_ctrl.dram.rank1.pwrStateTime::SREF            0                       # Time in different power states (Tick)
system.mem_ctrl.dram.rank1.pwrStateTime::PRE_PDN            0                       # Time in different power states (Tick)
system.mem_ctrl.dram.rank1.pwrStateTime::ACT  57818686750                       # Time in different power states (Tick)
system.mem_ctrl.dram.rank1.pwrStateTime::ACT_PDN            0                       # Time in different power states (Tick)
system.mem_ctrl.power_state.pwrStateResidencyTicks::UNDEFINED 107383846000                       # Cumulative time (in ticks) in various power states (Tick)
system.workload.inst.arm                            0                       # number of arm instructions executed (Count)
system.workload.inst.quiesce                        0                       # number of quiesce instructions executed (Count)

---------- End Simulation Statistics   ----------
