
---------- Begin Simulation Statistics ----------
simSeconds                                   0.074004                       # Number of seconds simulated (Second)
simTicks                                  74003632000                       # Number of ticks simulated (Tick)
finalTick                                 74003632000                       # Number of ticks from beginning of simulation (restored from checkpoints and never reset) (Tick)
simFreq                                  1000000000000                       # The number of ticks per simulated second ((Tick/Second))
hostSeconds                                    224.97                       # Real time elapsed on the host (Second)
hostTickRate                                328952126                       # The number of ticks simulated per host second (ticks/s) ((Tick/Second))
hostMemory                                    9639676                       # Number of bytes of host memory used (Byte)
simInsts                                     46698355                       # Number of instructions simulated (Count)
simOps                                       83201955                       # Number of ops (including micro ops) simulated (Count)
hostInstRate                                   207578                       # Simulator instruction rate (inst/s) ((Count/Second))
hostOpRate                                     369839                       # Simulator op (including micro ops) rate (op/s) ((Count/Second))
system.caches.delayHistogram::bucket_size            8                       # delay histogram for all message
system.caches.delayHistogram::max_bucket           79                       # delay histogram for all message
system.caches.delayHistogram::samples         2031446                       # delay histogram for all message
system.caches.delayHistogram::mean           0.369694                       # delay histogram for all message
system.caches.delayHistogram::stdev          1.521905                       # delay histogram for all message
system.caches.delayHistogram             |     2024477     99.66%     99.66% |        5211      0.26%     99.91% |        1015      0.05%     99.96% |         577      0.03%     99.99% |         115      0.01%    100.00% |          38      0.00%    100.00% |          11      0.00%    100.00% |           2      0.00%    100.00% |           0      0.00%    100.00% |           0      0.00%    100.00% # delay histogram for all message (Unspecified)
system.caches.delayHistogram::total           2031446                       # delay histogram for all message
system.caches.m_outstandReqHistSeqr::bucket_size            2                      
system.caches.m_outstandReqHistSeqr::max_bucket           19                      
system.caches.m_outstandReqHistSeqr::samples     27748966                      
system.caches.m_outstandReqHistSeqr::mean     1.694717                      
system.caches.m_outstandReqHistSeqr::gmean     1.484191                      
system.caches.m_outstandReqHistSeqr::stdev     1.021923                      
system.caches.m_outstandReqHistSeqr      |    15474164     55.76%     55.76% |    10557391     38.05%     93.81% |     1557924      5.61%     99.43% |      108474      0.39%     99.82% |       23464      0.08%     99.90% |       16414      0.06%     99.96% |        6610      0.02%     99.98% |        2902      0.01%     99.99% |        1623      0.01%    100.00% |           0      0.00%    100.00% (Unspecified)
system.caches.m_outstandReqHistSeqr::total     27748966                      
system.caches.m_latencyHistSeqr::bucket_size           64                      
system.caches.m_latencyHistSeqr::max_bucket          639                      
system.caches.m_latencyHistSeqr::samples     28058400                      
system.caches.m_latencyHistSeqr::mean        2.690187                      
system.caches.m_latencyHistSeqr::gmean       1.160956                      
system.caches.m_latencyHistSeqr::stdev      10.693271                      
system.caches.m_latencyHistSeqr          |    27918520     99.50%     99.50% |      100231      0.36%     99.86% |       28843      0.10%     99.96% |        7011      0.02%     99.99% |        2198      0.01%     99.99% |        1247      0.00%    100.00% |         197      0.00%    100.00% |         120      0.00%    100.00% |          33      0.00%    100.00% |           0      0.00%    100.00% (Unspecified)
system.caches.m_latencyHistSeqr::total       28058400                      
system.caches.m_hitLatencyHistSeqr::bucket_size           32                      
system.caches.m_hitLatencyHistSeqr::max_bucket          319                      
system.caches.m_hitLatencyHistSeqr::samples     27042661                      
system.caches.m_hitLatencyHistSeqr::mean     1.063110                      
system.caches.m_hitLatencyHistSeqr::gmean     1.016819                      
system.caches.m_hitLatencyHistSeqr::stdev     0.971177                      
system.caches.m_hitLatencyHistSeqr       |    27042502    100.00%    100.00% |          82      0.00%    100.00% |          39      0.00%    100.00% |          13      0.00%    100.00% |          14      0.00%    100.00% |           6      0.00%    100.00% |           5      0.00%    100.00% |           0      0.00%    100.00% |           0      0.00%    100.00% |           0      0.00%    100.00% (Unspecified)
system.caches.m_hitLatencyHistSeqr::total     27042661                      
system.caches.m_missLatencyHistSeqr::bucket_size           64                      
system.caches.m_missLatencyHistSeqr::max_bucket          639                      
system.caches.m_missLatencyHistSeqr::samples      1015739                      
system.caches.m_missLatencyHistSeqr::mean    46.008883                      
system.caches.m_missLatencyHistSeqr::gmean    39.590988                      
system.caches.m_missLatencyHistSeqr::stdev    34.446347                      
system.caches.m_missLatencyHistSeqr      |      875936     86.24%     86.24% |      100179      9.86%     96.10% |       28823      2.84%     98.94% |        7006      0.69%     99.63% |        2198      0.22%     99.84% |        1247      0.12%     99.97% |         197      0.02%     99.98% |         120      0.01%    100.00% |          33      0.00%    100.00% |           0      0.00%    100.00% (Unspecified)
system.caches.m_missLatencyHistSeqr::total      1015739                      
system.caches.delayVCHist.vnet_1::bucket_size            2                       # delay histogram for vnet_1
system.caches.delayVCHist.vnet_1::max_bucket           19                       # delay histogram for vnet_1
system.caches.delayVCHist.vnet_1::samples      1015739                       # delay histogram for vnet_1
system.caches.delayVCHist.vnet_1::mean       0.054164                       # delay histogram for vnet_1
system.caches.delayVCHist.vnet_1::stdev      0.564061                       # delay histogram for vnet_1
system.caches.delayVCHist.vnet_1         |     1004886     98.93%     98.93% |        1213      0.12%     99.05% |        5696      0.56%     99.61% |        1024      0.10%     99.71% |        2844      0.28%     99.99% |          37      0.00%    100.00% |          15      0.00%    100.00% |          12      0.00%    100.00% |          12      0.00%    100.00% |           0      0.00%    100.00% # delay histogram for vnet_1 (Unspecified)
system.caches.delayVCHist.vnet_1::total       1015739                       # delay histogram for vnet_1
system.caches.delayVCHist.vnet_2::bucket_size            8                       # delay histogram for vnet_2
system.caches.delayVCHist.vnet_2::max_bucket           79                       # delay histogram for vnet_2
system.caches.delayVCHist.vnet_2::samples      1015707                       # delay histogram for vnet_2
system.caches.delayVCHist.vnet_2::mean       0.685235                       # delay histogram for vnet_2
system.caches.delayVCHist.vnet_2::stdev      2.028586                       # delay histogram for vnet_2
system.caches.delayVCHist.vnet_2         |     1011658     99.60%     99.60% |        2303      0.23%     99.83% |        1003      0.10%     99.93% |         577      0.06%     99.98% |         115      0.01%     99.99% |          38      0.00%    100.00% |          11      0.00%    100.00% |           2      0.00%    100.00% |           0      0.00%    100.00% |           0      0.00%    100.00% # delay histogram for vnet_2 (Unspecified)
system.caches.delayVCHist.vnet_2::total       1015707                       # delay histogram for vnet_2
system.caches.L1Cache_Controller.Load         8821391      0.00%      0.00% (Unspecified)
system.caches.L1Cache_Controller.Ifetch       8272540      0.00%      0.00% (Unspecified)
system.caches.L1Cache_Controller.Store       10964470      0.00%      0.00% (Unspecified)
system.caches.L1Cache_Controller.Data         1015739      0.00%      0.00% (Unspecified)
system.caches.L1Cache_Controller.Replacement      1015708      0.00%      0.00% (Unspecified)
system.caches.L1Cache_Controller.Writeback_Ack      1015707      0.00%      0.00% (Unspecified)
system.caches.L1Cache_Controller.I.Load        377445      0.00%      0.00% (Unspecified)
system.caches.L1Cache_Controller.I.Ifetch       497612      0.00%      0.00% (Unspecified)
system.caches.L1Cache_Controller.I.Store       140683      0.00%      0.00% (Unspecified)
system.caches.L1Cache_Controller.M.Load       8443946      0.00%      0.00% (Unspecified)
system.caches.L1Cache_Controller.M.Ifetch      7774928      0.00%      0.00% (Unspecified)
system.caches.L1Cache_Controller.M.Store     10823787      0.00%      0.00% (Unspecified)
system.caches.L1Cache_Controller.M.Replacement      1015708      0.00%      0.00% (Unspecified)
system.caches.L1Cache_Controller.MI.Writeback_Ack      1015707      0.00%      0.00% (Unspecified)
system.caches.L1Cache_Controller.IS.Data       875056      0.00%      0.00% (Unspecified)
system.caches.L1Cache_Controller.IM.Data       140683      0.00%      0.00% (Unspecified)
system.caches.Directory_Controller.GETX       1015739      0.00%      0.00% (Unspecified)
system.caches.Directory_Controller.PUTX       1015707      0.00%      0.00% (Unspecified)
system.caches.Directory_Controller.Memory_Data      1015739      0.00%      0.00% (Unspecified)
system.caches.Directory_Controller.Memory_Ack      1015707      0.00%      0.00% (Unspecified)
system.caches.Directory_Controller.I.GETX      1015739      0.00%      0.00% (Unspecified)
system.caches.Directory_Controller.M.PUTX      1015707      0.00%      0.00% (Unspecified)
system.caches.Directory_Controller.IM.Memory_Data      1015739      0.00%      0.00% (Unspecified)
system.caches.Directory_Controller.MI.Memory_Ack      1015707      0.00%      0.00% (Unspecified)
system.caches.MachineType.Directory.miss_mach_latency_hist_seqr::bucket_size           64                       (Unspecified)
system.caches.MachineType.Directory.miss_mach_latency_hist_seqr::max_bucket          639                       (Unspecified)
system.caches.MachineType.Directory.miss_mach_latency_hist_seqr::samples      1015739                       (Unspecified)
system.caches.MachineType.Directory.miss_mach_latency_hist_seqr::mean    46.008883                       (Unspecified)
system.caches.MachineType.Directory.miss_mach_latency_hist_seqr::gmean    39.590988                       (Unspecified)
system.caches.MachineType.Directory.miss_mach_latency_hist_seqr::stdev    34.446347                       (Unspecified)
system.caches.MachineType.Directory.miss_mach_latency_hist_seqr |      875936     86.24%     86.24% |      100179      9.86%     96.10% |       28823      2.84%     98.94% |        7006      0.69%     99.63% |        2198      0.22%     99.84% |        1247      0.12%     99.97% |         197      0.02%     99.98% |         120      0.01%    100.00% |          33      0.00%    100.00% |           0      0.00%    100.00% (Unspecified)
system.caches.MachineType.Directory.miss_mach_latency_hist_seqr::total      1015739                       (Unspecified)
system.caches.MachineType.Directory.miss_latency_hist_seqr.issue_to_initial_request::bucket_size            1                       (Unspecified)
system.caches.MachineType.Directory.miss_latency_hist_seqr.issue_to_initial_request::max_bucket            9                       (Unspecified)
system.caches.MachineType.Directory.miss_latency_hist_seqr.issue_to_initial_request::samples            1                       (Unspecified)
system.caches.MachineType.Directory.miss_latency_hist_seqr.issue_to_initial_request::stdev          nan                       (Unspecified)
system.caches.MachineType.Directory.miss_latency_hist_seqr.issue_to_initial_request |           1    100.00%    100.00% |           0      0.00%    100.00% |           0      0.00%    100.00% |           0      0.00%    100.00% |           0      0.00%    100.00% |           0      0.00%    100.00% |           0      0.00%    100.00% |           0      0.00%    100.00% |           0      0.00%    100.00% |           0      0.00%    100.00% (Unspecified)
system.caches.MachineType.Directory.miss_latency_hist_seqr.issue_to_initial_request::total            1                       (Unspecified)
system.caches.MachineType.Directory.miss_latency_hist_seqr.initial_to_forward::bucket_size            1                       (Unspecified)
system.caches.MachineType.Directory.miss_latency_hist_seqr.initial_to_forward::max_bucket            9                       (Unspecified)
system.caches.MachineType.Directory.miss_latency_hist_seqr.initial_to_forward::samples            1                       (Unspecified)
system.caches.MachineType.Directory.miss_latency_hist_seqr.initial_to_forward::stdev          nan                       (Unspecified)
system.caches.MachineType.Directory.miss_latency_hist_seqr.initial_to_forward |           1    100.00%    100.00% |           0      0.00%    100.00% |           0      0.00%    100.00% |           0      0.00%    100.00% |           0      0.00%    100.00% |           0      0.00%    100.00% |           0      0.00%    100.00% |           0      0.00%    100.00% |           0      0.00%    100.00% |           0      0.00%    100.00% (Unspecified)
system.caches.MachineType.Directory.miss_latency_hist_seqr.initial_to_forward::total            1                       (Unspecified)
system.caches.MachineType.Directory.miss_latency_hist_seqr.forward_to_first_response::bucket_size            1                       (Unspecified)
system.caches.MachineType.Directory.miss_latency_hist_seqr.forward_to_first_response::max_bucket            9                       (Unspecified)
system.caches.MachineType.Directory.miss_latency_hist_seqr.forward_to_first_response::samples            1                       (Unspecified)
system.caches.MachineType.Directory.miss_latency_hist_seqr.forward_to_first_response::stdev          nan                       (Unspecified)
system.caches.MachineType.Directory.miss_latency_hist_seqr.forward_to_first_response |           1    100.00%    100.00% |           0      0.00%    100.00% |           0      0.00%    100.00% |           0      0.00%    100.00% |           0      0.00%    100.00% |           0      0.00%    100.00% |           0      0.00%    100.00% |           0      0.00%    100.00% |           0      0.00%    100.00% |           0      0.00%    100.00% (Unspecified)
system.caches.MachineType.Directory.miss_latency_hist_seqr.forward_to_first_response::total            1                       (Unspecified)
system.caches.MachineType.Directory.miss_latency_hist_seqr.first_response_to_completion::bucket_size            8                       (Unspecified)
system.caches.MachineType.Directory.miss_latency_hist_seqr.first_response_to_completion::max_bucket           79                       (Unspecified)
system.caches.MachineType.Directory.miss_latency_hist_seqr.first_response_to_completion::samples            1                       (Unspecified)
system.caches.MachineType.Directory.miss_latency_hist_seqr.first_response_to_completion::mean           73                       (Unspecified)
system.caches.MachineType.Directory.miss_latency_hist_seqr.first_response_to_completion::gmean    73.000000                       (Unspecified)
system.caches.MachineType.Directory.miss_latency_hist_seqr.first_response_to_completion::stdev          nan                       (Unspecified)
system.caches.MachineType.Directory.miss_latency_hist_seqr.first_response_to_completion |           0      0.00%      0.00% |           0      0.00%      0.00% |           0      0.00%      0.00% |           0      0.00%      0.00% |           0      0.00%      0.00% |           0      0.00%      0.00% |           0      0.00%      0.00% |           0      0.00%      0.00% |           0      0.00%      0.00% |           1    100.00%    100.00% (Unspecified)
system.caches.MachineType.Directory.miss_latency_hist_seqr.first_response_to_completion::total            1                       (Unspecified)
system.caches.MachineType.Directory.incomplete_times_seqr      1015738                       (Unspecified)
system.caches.RequestType.LD.latency_hist_seqr::bucket_size           64                       (Unspecified)
system.caches.RequestType.LD.latency_hist_seqr::max_bucket          639                       (Unspecified)
system.caches.RequestType.LD.latency_hist_seqr::samples      8821391                       (Unspecified)
system.caches.RequestType.LD.latency_hist_seqr::mean     3.402559                       (Unspecified)
system.caches.RequestType.LD.latency_hist_seqr::gmean     1.185429                       (Unspecified)
system.caches.RequestType.LD.latency_hist_seqr::stdev    13.994327                       (Unspecified)
system.caches.RequestType.LD.latency_hist_seqr |     8743187     99.11%     99.11% |       54826      0.62%     99.73% |       15804      0.18%     99.91% |        5304      0.06%     99.97% |        1356      0.02%     99.99% |         703      0.01%    100.00% |         110      0.00%    100.00% |          68      0.00%    100.00% |          33      0.00%    100.00% |           0      0.00%    100.00% (Unspecified)
system.caches.RequestType.LD.latency_hist_seqr::total      8821391                       (Unspecified)
system.caches.RequestType.LD.hit_latency_hist_seqr::bucket_size           32                       (Unspecified)
system.caches.RequestType.LD.hit_latency_hist_seqr::max_bucket          319                       (Unspecified)
system.caches.RequestType.LD.hit_latency_hist_seqr::samples      8443946                       (Unspecified)
system.caches.RequestType.LD.hit_latency_hist_seqr::mean     1.023002                       (Unspecified)
system.caches.RequestType.LD.hit_latency_hist_seqr::gmean     1.004003                       (Unspecified)
system.caches.RequestType.LD.hit_latency_hist_seqr::stdev     0.662323                       (Unspecified)
system.caches.RequestType.LD.hit_latency_hist_seqr |     8443867    100.00%    100.00% |          43      0.00%    100.00% |          16      0.00%    100.00% |           6      0.00%    100.00% |           8      0.00%    100.00% |           4      0.00%    100.00% |           2      0.00%    100.00% |           0      0.00%    100.00% |           0      0.00%    100.00% |           0      0.00%    100.00% (Unspecified)
system.caches.RequestType.LD.hit_latency_hist_seqr::total      8443946                       (Unspecified)
system.caches.RequestType.LD.miss_latency_hist_seqr::bucket_size           64                       (Unspecified)
system.caches.RequestType.LD.miss_latency_hist_seqr::max_bucket          639                       (Unspecified)
system.caches.RequestType.LD.miss_latency_hist_seqr::samples       377445                       (Unspecified)
system.caches.RequestType.LD.miss_latency_hist_seqr::mean    56.636405                       (Unspecified)
system.caches.RequestType.LD.miss_latency_hist_seqr::gmean    48.725780                       (Unspecified)
system.caches.RequestType.LD.miss_latency_hist_seqr::stdev    40.084205                       (Unspecified)
system.caches.RequestType.LD.miss_latency_hist_seqr |      299277     79.29%     79.29% |       54804     14.52%     93.81% |       15792      4.18%     97.99% |        5302      1.40%     99.40% |        1356      0.36%     99.76% |         703      0.19%     99.94% |         110      0.03%     99.97% |          68      0.02%     99.99% |          33      0.01%    100.00% |           0      0.00%    100.00% (Unspecified)
system.caches.RequestType.LD.miss_latency_hist_seqr::total       377445                       (Unspecified)
system.caches.RequestType.ST.latency_hist_seqr::bucket_size           64                       (Unspecified)
system.caches.RequestType.ST.latency_hist_seqr::max_bucket          639                       (Unspecified)
system.caches.RequestType.ST.latency_hist_seqr::samples     10485011                       (Unspecified)
system.caches.RequestType.ST.latency_hist_seqr::mean     1.692333                       (Unspecified)
system.caches.RequestType.ST.latency_hist_seqr::gmean     1.082255                       (Unspecified)
system.caches.RequestType.ST.latency_hist_seqr::stdev     6.314319                       (Unspecified)
system.caches.RequestType.ST.latency_hist_seqr |    10455822     99.72%     99.72% |       25146      0.24%     99.96% |        3106      0.03%     99.99% |         484      0.00%    100.00% |         271      0.00%    100.00% |         145      0.00%    100.00% |          23      0.00%    100.00% |          14      0.00%    100.00% |           0      0.00%    100.00% |           0      0.00%    100.00% (Unspecified)
system.caches.RequestType.ST.latency_hist_seqr::total     10485011                       (Unspecified)
system.caches.RequestType.ST.hit_latency_hist_seqr::bucket_size           32                       (Unspecified)
system.caches.RequestType.ST.hit_latency_hist_seqr::max_bucket          319                       (Unspecified)
system.caches.RequestType.ST.hit_latency_hist_seqr::samples     10347265                       (Unspecified)
system.caches.RequestType.ST.hit_latency_hist_seqr::mean     1.133118                       (Unspecified)
system.caches.RequestType.ST.hit_latency_hist_seqr::gmean     1.032445                       (Unspecified)
system.caches.RequestType.ST.hit_latency_hist_seqr::stdev     1.425368                       (Unspecified)
system.caches.RequestType.ST.hit_latency_hist_seqr |    10347234    100.00%    100.00% |          19      0.00%    100.00% |           8      0.00%    100.00% |           3      0.00%    100.00% |           0      0.00%    100.00% |           0      0.00%    100.00% |           1      0.00%    100.00% |           0      0.00%    100.00% |           0      0.00%    100.00% |           0      0.00%    100.00% (Unspecified)
system.caches.RequestType.ST.hit_latency_hist_seqr::total     10347265                       (Unspecified)
system.caches.RequestType.ST.miss_latency_hist_seqr::bucket_size           64                       (Unspecified)
system.caches.RequestType.ST.miss_latency_hist_seqr::max_bucket          639                       (Unspecified)
system.caches.RequestType.ST.miss_latency_hist_seqr::samples       137746                       (Unspecified)
system.caches.RequestType.ST.miss_latency_hist_seqr::mean    43.699636                       (Unspecified)
system.caches.RequestType.ST.miss_latency_hist_seqr::gmean    37.278992                       (Unspecified)
system.caches.RequestType.ST.miss_latency_hist_seqr::stdev    33.078337                       (Unspecified)
system.caches.RequestType.ST.miss_latency_hist_seqr |      108569     78.82%     78.82% |       25135     18.25%     97.07% |        3106      2.25%     99.32% |         483      0.35%     99.67% |         271      0.20%     99.87% |         145      0.11%     99.97% |          23      0.02%     99.99% |          14      0.01%    100.00% |           0      0.00%    100.00% |           0      0.00%    100.00% (Unspecified)
system.caches.RequestType.ST.miss_latency_hist_seqr::total       137746                       (Unspecified)
system.caches.RequestType.IFETCH.latency_hist_seqr::bucket_size           64                       (Unspecified)
system.caches.RequestType.IFETCH.latency_hist_seqr::max_bucket          639                       (Unspecified)
system.caches.RequestType.IFETCH.latency_hist_seqr::samples      8272539                       (Unspecified)
system.caches.RequestType.IFETCH.latency_hist_seqr::mean     3.250827                       (Unspecified)
system.caches.RequestType.IFETCH.latency_hist_seqr::gmean     1.237145                       (Unspecified)
system.caches.RequestType.IFETCH.latency_hist_seqr::stdev    11.113269                       (Unspecified)
system.caches.RequestType.IFETCH.latency_hist_seqr |     8241983     99.63%     99.63% |       18654      0.23%     99.86% |        9672      0.12%     99.97% |        1184      0.01%     99.99% |         551      0.01%     99.99% |         394      0.00%    100.00% |          63      0.00%    100.00% |          38      0.00%    100.00% |           0      0.00%    100.00% |           0      0.00%    100.00% (Unspecified)
system.caches.RequestType.IFETCH.latency_hist_seqr::total      8272539                       (Unspecified)
system.caches.RequestType.IFETCH.hit_latency_hist_seqr::bucket_size           32                       (Unspecified)
system.caches.RequestType.IFETCH.hit_latency_hist_seqr::max_bucket          319                       (Unspecified)
system.caches.RequestType.IFETCH.hit_latency_hist_seqr::samples      7774928                       (Unspecified)
system.caches.RequestType.IFETCH.hit_latency_hist_seqr::mean     1.001314                       (Unspecified)
system.caches.RequestType.IFETCH.hit_latency_hist_seqr::gmean     1.000203                       (Unspecified)
system.caches.RequestType.IFETCH.hit_latency_hist_seqr::stdev     0.231609                       (Unspecified)
system.caches.RequestType.IFETCH.hit_latency_hist_seqr |     7774894    100.00%    100.00% |          15      0.00%    100.00% |          12      0.00%    100.00% |           2      0.00%    100.00% |           1      0.00%    100.00% |           2      0.00%    100.00% |           2      0.00%    100.00% |           0      0.00%    100.00% |           0      0.00%    100.00% |           0      0.00%    100.00% (Unspecified)
system.caches.RequestType.IFETCH.hit_latency_hist_seqr::total      7774928                       (Unspecified)
system.caches.RequestType.IFETCH.miss_latency_hist_seqr::bucket_size           64                       (Unspecified)
system.caches.RequestType.IFETCH.miss_latency_hist_seqr::max_bucket          639                       (Unspecified)
system.caches.RequestType.IFETCH.miss_latency_hist_seqr::samples       497611                       (Unspecified)
system.caches.RequestType.IFETCH.miss_latency_hist_seqr::mean    38.398357                       (Unspecified)
system.caches.RequestType.IFETCH.miss_latency_hist_seqr::gmean    34.282020                       (Unspecified)
system.caches.RequestType.IFETCH.miss_latency_hist_seqr::stdev    27.165335                       (Unspecified)
system.caches.RequestType.IFETCH.miss_latency_hist_seqr |      467074     93.86%     93.86% |       18640      3.75%     97.61% |        9669      1.94%     99.55% |        1182      0.24%     99.79% |         551      0.11%     99.90% |         394      0.08%     99.98% |          63      0.01%     99.99% |          38      0.01%    100.00% |           0      0.00%    100.00% |           0      0.00%    100.00% (Unspecified)
system.caches.RequestType.IFETCH.miss_latency_hist_seqr::total       497611                       (Unspecified)
system.caches.RequestType.RMW_Read.latency_hist_seqr::bucket_size           64                       (Unspecified)
system.caches.RequestType.RMW_Read.latency_hist_seqr::max_bucket          639                       (Unspecified)
system.caches.RequestType.RMW_Read.latency_hist_seqr::samples       479459                       (Unspecified)
system.caches.RequestType.RMW_Read.latency_hist_seqr::mean     1.731800                       (Unspecified)
system.caches.RequestType.RMW_Read.latency_hist_seqr::gmean     1.226088                       (Unspecified)
system.caches.RequestType.RMW_Read.latency_hist_seqr::stdev     6.937616                       (Unspecified)
system.caches.RequestType.RMW_Read.latency_hist_seqr |      477528     99.60%     99.60% |        1605      0.33%     99.93% |         261      0.05%     99.99% |          39      0.01%     99.99% |          20      0.00%    100.00% |           5      0.00%    100.00% |           1      0.00%    100.00% |           0      0.00%    100.00% |           0      0.00%    100.00% |           0      0.00%    100.00% (Unspecified)
system.caches.RequestType.RMW_Read.latency_hist_seqr::total       479459                       (Unspecified)
system.caches.RequestType.RMW_Read.hit_latency_hist_seqr::bucket_size           16                       (Unspecified)
system.caches.RequestType.RMW_Read.hit_latency_hist_seqr::max_bucket          159                       (Unspecified)
system.caches.RequestType.RMW_Read.hit_latency_hist_seqr::samples       476522                       (Unspecified)
system.caches.RequestType.RMW_Read.hit_latency_hist_seqr::mean     1.261921                       (Unspecified)
system.caches.RequestType.RMW_Read.hit_latency_hist_seqr::gmean     1.196150                       (Unspecified)
system.caches.RequestType.RMW_Read.hit_latency_hist_seqr::stdev     0.724260                       (Unspecified)
system.caches.RequestType.RMW_Read.hit_latency_hist_seqr |      476489     99.99%     99.99% |          18      0.00%    100.00% |           2      0.00%    100.00% |           3      0.00%    100.00% |           1      0.00%    100.00% |           2      0.00%    100.00% |           1      0.00%    100.00% |           1      0.00%    100.00% |           4      0.00%    100.00% |           1      0.00%    100.00% (Unspecified)
system.caches.RequestType.RMW_Read.hit_latency_hist_seqr::total       476522                       (Unspecified)
system.caches.RequestType.RMW_Read.miss_latency_hist_seqr::bucket_size           64                       (Unspecified)
system.caches.RequestType.RMW_Read.miss_latency_hist_seqr::max_bucket          639                       (Unspecified)
system.caches.RequestType.RMW_Read.miss_latency_hist_seqr::samples         2937                       (Unspecified)
system.caches.RequestType.RMW_Read.miss_latency_hist_seqr::mean    77.968676                       (Unspecified)
system.caches.RequestType.RMW_Read.miss_latency_hist_seqr::gmean    67.674126                       (Unspecified)
system.caches.RequestType.RMW_Read.miss_latency_hist_seqr::stdev    43.873149                       (Unspecified)
system.caches.RequestType.RMW_Read.miss_latency_hist_seqr |        1016     34.59%     34.59% |        1600     54.48%     89.07% |         256      8.72%     97.79% |          39      1.33%     99.11% |          20      0.68%     99.80% |           5      0.17%     99.97% |           1      0.03%    100.00% |           0      0.00%    100.00% |           0      0.00%    100.00% |           0      0.00%    100.00% (Unspecified)
system.caches.RequestType.RMW_Read.miss_latency_hist_seqr::total         2937                       (Unspecified)
system.caches.RequestTypeMachineType.LD.Directory.miss_type_mach_latency_hist_seqr::bucket_size           64                       (Unspecified)
system.caches.RequestTypeMachineType.LD.Directory.miss_type_mach_latency_hist_seqr::max_bucket          639                       (Unspecified)
system.caches.RequestTypeMachineType.LD.Directory.miss_type_mach_latency_hist_seqr::samples       377445                       (Unspecified)
system.caches.RequestTypeMachineType.LD.Directory.miss_type_mach_latency_hist_seqr::mean    56.636405                       (Unspecified)
system.caches.RequestTypeMachineType.LD.Directory.miss_type_mach_latency_hist_seqr::gmean    48.725780                       (Unspecified)
system.caches.RequestTypeMachineType.LD.Directory.miss_type_mach_latency_hist_seqr::stdev    40.084205                       (Unspecified)
system.caches.RequestTypeMachineType.LD.Directory.miss_type_mach_latency_hist_seqr |      299277     79.29%     79.29% |       54804     14.52%     93.81% |       15792      4.18%     97.99% |        5302      1.40%     99.40% |        1356      0.36%     99.76% |         703      0.19%     99.94% |         110      0.03%     99.97% |          68      0.02%     99.99% |          33      0.01%    100.00% |           0      0.00%    100.00% (Unspecified)
system.caches.RequestTypeMachineType.LD.Directory.miss_type_mach_latency_hist_seqr::total       377445                       (Unspecified)
system.caches.RequestTypeMachineType.ST.Directory.miss_type_mach_latency_hist_seqr::bucket_size           64                       (Unspecified)
system.caches.RequestTypeMachineType.ST.Directory.miss_type_mach_latency_hist_seqr::max_bucket          639                       (Unspecified)
system.caches.RequestTypeMachineType.ST.Directory.miss_type_mach_latency_hist_seqr::samples       137746                       (Unspecified)
system.caches.RequestTypeMachineType.ST.Directory.miss_type_mach_latency_hist_seqr::mean    43.699636                       (Unspecified)
system.caches.RequestTypeMachineType.ST.Directory.miss_type_mach_latency_hist_seqr::gmean    37.278992                       (Unspecified)
system.caches.RequestTypeMachineType.ST.Directory.miss_type_mach_latency_hist_seqr::stdev    33.078337                       (Unspecified)
system.caches.RequestTypeMachineType.ST.Directory.miss_type_mach_latency_hist_seqr |      108569     78.82%     78.82% |       25135     18.25%     97.07% |        3106      2.25%     99.32% |         483      0.35%     99.67% |         271      0.20%     99.87% |         145      0.11%     99.97% |          23      0.02%     99.99% |          14      0.01%    100.00% |           0      0.00%    100.00% |           0      0.00%    100.00% (Unspecified)
system.caches.RequestTypeMachineType.ST.Directory.miss_type_mach_latency_hist_seqr::total       137746                       (Unspecified)
system.caches.RequestTypeMachineType.IFETCH.Directory.miss_type_mach_latency_hist_seqr::bucket_size           64                       (Unspecified)
system.caches.RequestTypeMachineType.IFETCH.Directory.miss_type_mach_latency_hist_seqr::max_bucket          639                       (Unspecified)
system.caches.RequestTypeMachineType.IFETCH.Directory.miss_type_mach_latency_hist_seqr::samples       497611                       (Unspecified)
system.caches.RequestTypeMachineType.IFETCH.Directory.miss_type_mach_latency_hist_seqr::mean    38.398357                       (Unspecified)
system.caches.RequestTypeMachineType.IFETCH.Directory.miss_type_mach_latency_hist_seqr::gmean    34.282020                       (Unspecified)
system.caches.RequestTypeMachineType.IFETCH.Directory.miss_type_mach_latency_hist_seqr::stdev    27.165335                       (Unspecified)
system.caches.RequestTypeMachineType.IFETCH.Directory.miss_type_mach_latency_hist_seqr |      467074     93.86%     93.86% |       18640      3.75%     97.61% |        9669      1.94%     99.55% |        1182      0.24%     99.79% |         551      0.11%     99.90% |         394      0.08%     99.98% |          63      0.01%     99.99% |          38      0.01%    100.00% |           0      0.00%    100.00% |           0      0.00%    100.00% (Unspecified)
system.caches.RequestTypeMachineType.IFETCH.Directory.miss_type_mach_latency_hist_seqr::total       497611                       (Unspecified)
system.caches.RequestTypeMachineType.RMW_Read.Directory.miss_type_mach_latency_hist_seqr::bucket_size           64                       (Unspecified)
system.caches.RequestTypeMachineType.RMW_Read.Directory.miss_type_mach_latency_hist_seqr::max_bucket          639                       (Unspecified)
system.caches.RequestTypeMachineType.RMW_Read.Directory.miss_type_mach_latency_hist_seqr::samples         2937                       (Unspecified)
system.caches.RequestTypeMachineType.RMW_Read.Directory.miss_type_mach_latency_hist_seqr::mean    77.968676                       (Unspecified)
system.caches.RequestTypeMachineType.RMW_Read.Directory.miss_type_mach_latency_hist_seqr::gmean    67.674126                       (Unspecified)
system.caches.RequestTypeMachineType.RMW_Read.Directory.miss_type_mach_latency_hist_seqr::stdev    43.873149                       (Unspecified)
system.caches.RequestTypeMachineType.RMW_Read.Directory.miss_type_mach_latency_hist_seqr |        1016     34.59%     34.59% |        1600     54.48%     89.07% |         256      8.72%     97.79% |          39      1.33%     99.11% |          20      0.68%     99.80% |           5      0.17%     99.97% |           1      0.03%    100.00% |           0      0.00%    100.00% |           0      0.00%    100.00% |           0      0.00%    100.00% (Unspecified)
system.caches.RequestTypeMachineType.RMW_Read.Directory.miss_type_mach_latency_hist_seqr::total         2937                       (Unspecified)
system.caches.controllers0.delayHistogram::samples      2031446                       # delay_histogram (Unspecified)
system.caches.controllers0.delayHistogram::mean     0.369694                       # delay_histogram (Unspecified)
system.caches.controllers0.delayHistogram::stdev     1.521905                       # delay_histogram (Unspecified)
system.caches.controllers0.delayHistogram::0-7      2024477     99.66%     99.66% # delay_histogram (Unspecified)
system.caches.controllers0.delayHistogram::8-15         5211      0.26%     99.91% # delay_histogram (Unspecified)
system.caches.controllers0.delayHistogram::16-23         1015      0.05%     99.96% # delay_histogram (Unspecified)
system.caches.controllers0.delayHistogram::24-31          577      0.03%     99.99% # delay_histogram (Unspecified)
system.caches.controllers0.delayHistogram::32-39          115      0.01%    100.00% # delay_histogram (Unspecified)
system.caches.controllers0.delayHistogram::40-47           38      0.00%    100.00% # delay_histogram (Unspecified)
system.caches.controllers0.delayHistogram::48-55           11      0.00%    100.00% # delay_histogram (Unspecified)
system.caches.controllers0.delayHistogram::56-63            2      0.00%    100.00% # delay_histogram (Unspecified)
system.caches.controllers0.delayHistogram::total      2031446                       # delay_histogram (Unspecified)
system.caches.controllers0.cacheMemory.m_demand_hits     27042661                       # Number of cache demand hits (Unspecified)
system.caches.controllers0.cacheMemory.m_demand_misses      1015740                       # Number of cache demand misses (Unspecified)
system.caches.controllers0.cacheMemory.m_demand_accesses     28058401                       # Number of cache demand accesses (Unspecified)
system.caches.controllers0.forwardToCache.m_buf_msgs     0.013725                       # Average number of messages in buffer (Unspecified)
system.caches.controllers0.forwardToCache.m_stall_time  5194.119945                       # Average number of cycles messages are stalled in this MB (Unspecified)
system.caches.controllers0.mandatoryQueue.m_buf_msgs     0.418064                       # Average number of messages in buffer (Unspecified)
system.caches.controllers0.mandatoryQueue.m_stall_time  1075.793942                       # Average number of cycles messages are stalled in this MB (Unspecified)
system.caches.controllers0.power_state.pwrStateResidencyTicks::UNDEFINED  74003632000                       # Cumulative time (in ticks) in various power states (Tick)
system.caches.controllers0.requestFromCache.m_buf_msgs     0.054901                       # Average number of messages in buffer (Unspecified)
system.caches.controllers0.requestFromCache.m_stall_time  1999.999919                       # Average number of cycles messages are stalled in this MB (Unspecified)
system.caches.controllers0.responseToCache.m_buf_msgs     0.013726                       # Average number of messages in buffer (Unspecified)
system.caches.controllers0.responseToCache.m_stall_time  5045.316492                       # Average number of cycles messages are stalled in this MB (Unspecified)
system.caches.controllers1.forwardFromDir.m_buf_msgs     0.013725                       # Average number of messages in buffer (Unspecified)
system.caches.controllers1.forwardFromDir.m_stall_time   999.988865                       # Average number of cycles messages are stalled in this MB (Unspecified)
system.caches.controllers1.power_state.pwrStateResidencyTicks::UNDEFINED  74003632000                       # Cumulative time (in ticks) in various power states (Tick)
system.caches.controllers1.requestToDir.m_buf_msgs     0.027451                       # Average number of messages in buffer (Unspecified)
system.caches.controllers1.requestToDir.m_stall_time  9765.729714                       # Average number of cycles messages are stalled in this MB (Unspecified)
system.caches.controllers1.requestToMemory.m_buf_msgs     0.027467                       # Average number of messages in buffer (Unspecified)
system.caches.controllers1.requestToMemory.m_stall_time  1000.076496                       # Average number of cycles messages are stalled in this MB (Unspecified)
system.caches.controllers1.responseFromDir.m_buf_msgs     0.013726                       # Average number of messages in buffer (Unspecified)
system.caches.controllers1.responseFromDir.m_stall_time   999.999068                       # Average number of cycles messages are stalled in this MB (Unspecified)
system.caches.controllers1.responseFromMemory.m_buf_msgs     0.029037                       # Average number of messages in buffer (Unspecified)
system.caches.controllers1.responseFromMemory.m_stall_time   999.999081                       # Average number of cycles messages are stalled in this MB (Unspecified)
system.caches.network.msg_count.Control       2031478                       (Unspecified)
system.caches.network.msg_byte.Control       16251824                       (Unspecified)
system.caches.network.msg_count.Data          2031415                       (Unspecified)
system.caches.network.msg_byte.Data         146261880                       (Unspecified)
system.caches.network.msg_count.Response_Data      2031478                       (Unspecified)
system.caches.network.msg_byte.Response_Data    146266416                       (Unspecified)
system.caches.network.msg_count.Writeback_Control      2031414                       (Unspecified)
system.caches.network.msg_byte.Writeback_Control     16251312                       (Unspecified)
system.caches.network.int_link_buffers2.m_buf_msgs     0.027451                       # Average number of messages in buffer (Unspecified)
system.caches.network.int_link_buffers2.m_stall_time  7765.730120                       # Average number of cycles messages are stalled in this MB (Unspecified)
system.caches.network.int_link_buffers8.m_buf_msgs     0.013725                       # Average number of messages in buffer (Unspecified)
system.caches.network.int_link_buffers8.m_stall_time  3194.142404                       # Average number of cycles messages are stalled in this MB (Unspecified)
system.caches.network.int_link_buffers9.m_buf_msgs     0.013726                       # Average number of messages in buffer (Unspecified)
system.caches.network.int_link_buffers9.m_stall_time  3045.318546                       # Average number of cycles messages are stalled in this MB (Unspecified)
system.caches.network.power_state.pwrStateResidencyTicks::UNDEFINED  74003632000                       # Cumulative time (in ticks) in various power states (Tick)
system.caches.network.routers0.percent_links_utilized     6.862657                       (Unspecified)
system.caches.network.routers0.msg_count.Control::2      1015739                       (Unspecified)
system.caches.network.routers0.msg_bytes.Control::2      8125912                       (Unspecified)
system.caches.network.routers0.msg_count.Data::2      1015708                       (Unspecified)
system.caches.network.routers0.msg_bytes.Data::2     73130976                       (Unspecified)
system.caches.network.routers0.msg_count.Response_Data::4      1015739                       (Unspecified)
system.caches.network.routers0.msg_bytes.Response_Data::4     73133208                       (Unspecified)
system.caches.network.routers0.msg_count.Writeback_Control::3      1015707                       (Unspecified)
system.caches.network.routers0.msg_bytes.Writeback_Control::3      8125656                       (Unspecified)
system.caches.network.routers0.port_buffers3.m_buf_msgs     0.013725                       # Average number of messages in buffer (Unspecified)
system.caches.network.routers0.port_buffers3.m_stall_time  4194.131188                       # Average number of cycles messages are stalled in this MB (Unspecified)
system.caches.network.routers0.port_buffers4.m_buf_msgs     0.013726                       # Average number of messages in buffer (Unspecified)
system.caches.network.routers0.port_buffers4.m_stall_time  4045.317533                       # Average number of cycles messages are stalled in this MB (Unspecified)
system.caches.network.routers0.port_buffers7.m_buf_msgs     0.091608                       # Average number of messages in buffer (Unspecified)
system.caches.network.routers0.port_buffers7.m_stall_time  6765.730282                       # Average number of cycles messages are stalled in this MB (Unspecified)
system.caches.network.routers0.power_state.pwrStateResidencyTicks::UNDEFINED  74003632000                       # Cumulative time (in ticks) in various power states (Tick)
system.caches.network.routers0.throttle00.link_utilization     6.862743                       (Unspecified)
system.caches.network.routers0.throttle00.msg_count.Response_Data::4      1015739                       (Unspecified)
system.caches.network.routers0.throttle00.msg_bytes.Response_Data::4     73133208                       (Unspecified)
system.caches.network.routers0.throttle00.msg_count.Writeback_Control::3      1015707                       (Unspecified)
system.caches.network.routers0.throttle00.msg_bytes.Writeback_Control::3      8125656                       (Unspecified)
system.caches.network.routers0.throttle01.link_utilization     6.862571                       (Unspecified)
system.caches.network.routers0.throttle01.msg_count.Control::2      1015739                       (Unspecified)
system.caches.network.routers0.throttle01.msg_bytes.Control::2      8125912                       (Unspecified)
system.caches.network.routers0.throttle01.msg_count.Data::2      1015708                       (Unspecified)
system.caches.network.routers0.throttle01.msg_bytes.Data::2     73130976                       (Unspecified)
system.caches.network.routers1.percent_links_utilized     6.862656                       (Unspecified)
system.caches.network.routers1.msg_count.Control::2      1015739                       (Unspecified)
system.caches.network.routers1.msg_bytes.Control::2      8125912                       (Unspecified)
system.caches.network.routers1.msg_count.Data::2      1015707                       (Unspecified)
system.caches.network.routers1.msg_bytes.Data::2     73130904                       (Unspecified)
system.caches.network.routers1.msg_count.Response_Data::4      1015739                       (Unspecified)
system.caches.network.routers1.msg_bytes.Response_Data::4     73133208                       (Unspecified)
system.caches.network.routers1.msg_count.Writeback_Control::3      1015707                       (Unspecified)
system.caches.network.routers1.msg_bytes.Writeback_Control::3      8125656                       (Unspecified)
system.caches.network.routers1.port_buffers2.m_buf_msgs     0.027451                       # Average number of messages in buffer (Unspecified)
system.caches.network.routers1.port_buffers2.m_stall_time  8765.729931                       # Average number of cycles messages are stalled in this MB (Unspecified)
system.caches.network.routers1.port_buffers6.m_buf_msgs     0.018428                       # Average number of messages in buffer (Unspecified)
system.caches.network.routers1.port_buffers6.m_stall_time  2194.153592                       # Average number of cycles messages are stalled in this MB (Unspecified)
system.caches.network.routers1.port_buffers7.m_buf_msgs     0.014097                       # Average number of messages in buffer (Unspecified)
system.caches.network.routers1.port_buffers7.m_stall_time  2045.319532                       # Average number of cycles messages are stalled in this MB (Unspecified)
system.caches.network.routers1.power_state.pwrStateResidencyTicks::UNDEFINED  74003632000                       # Cumulative time (in ticks) in various power states (Tick)
system.caches.network.routers1.throttle00.link_utilization     6.862570                       (Unspecified)
system.caches.network.routers1.throttle00.msg_count.Control::2      1015739                       (Unspecified)
system.caches.network.routers1.throttle00.msg_bytes.Control::2      8125912                       (Unspecified)
system.caches.network.routers1.throttle00.msg_count.Data::2      1015707                       (Unspecified)
system.caches.network.routers1.throttle00.msg_bytes.Data::2     73130904                       (Unspecified)
system.caches.network.routers1.throttle01.link_utilization     6.862743                       (Unspecified)
system.caches.network.routers1.throttle01.msg_count.Response_Data::4      1015739                       (Unspecified)
system.caches.network.routers1.throttle01.msg_bytes.Response_Data::4     73133208                       (Unspecified)
system.caches.network.routers1.throttle01.msg_count.Writeback_Control::3      1015707                       (Unspecified)
system.caches.network.routers1.throttle01.msg_bytes.Writeback_Control::3      8125656                       (Unspecified)
system.caches.power_state.pwrStateResidencyTicks::UNDEFINED  74003632000                       # Cumulative time (in ticks) in various power states (Tick)
system.caches.sequencers.power_state.pwrStateResidencyTicks::UNDEFINED  74003632000                       # Cumulative time (in ticks) in various power states (Tick)
system.caches.sys_port_proxy.power_state.pwrStateResidencyTicks::UNDEFINED  74003632000                       # Cumulative time (in ticks) in various power states (Tick)
system.clk_domain.clock                          1000                       # Clock period in ticks (Tick)
system.clk_domain.voltage_domain.voltage            1                       # Voltage in Volts (Volt)
system.cpu.numCycles                         74003633                       # Number of cpu cycles simulated (Cycle)
system.cpu.numWorkItemsStarted                      0                       # Number of work items this cpu started (Count)
system.cpu.numWorkItemsCompleted                    0                       # Number of work items this cpu completed (Count)
system.cpu.instsAdded                        95555850                       # Number of instructions added to the IQ (excludes non-spec) (Count)
system.cpu.nonSpecInstsAdded                   917872                       # Number of non-speculative instructions added to the IQ (Count)
system.cpu.instsIssued                       92433046                       # Number of instructions issued (Count)
system.cpu.squashedInstsIssued                   1520                       # Number of squashed instructions issued (Count)
system.cpu.squashedInstsExamined             13271747                       # Number of squashed instructions iterated over during squash; mainly for profiling (Count)
system.cpu.squashedOperandsExamined          15723114                       # Number of squashed operands that are examined and possibly removed from graph (Count)
system.cpu.squashedNonSpecRemoved                 232                       # Number of squashed non-spec instructions that were removed (Count)
system.cpu.numIssuedDist::samples            70125435                       # Number of insts issued each cycle (Count)
system.cpu.numIssuedDist::mean               1.318110                       # Number of insts issued each cycle (Count)
system.cpu.numIssuedDist::stdev              1.836572                       # Number of insts issued each cycle (Count)
system.cpu.numIssuedDist::underflows                0      0.00%      0.00% # Number of insts issued each cycle (Count)
system.cpu.numIssuedDist::0                  36992861     52.75%     52.75% # Number of insts issued each cycle (Count)
system.cpu.numIssuedDist::1                  10615908     15.14%     67.89% # Number of insts issued each cycle (Count)
system.cpu.numIssuedDist::2                   6688387      9.54%     77.43% # Number of insts issued each cycle (Count)
system.cpu.numIssuedDist::3                   5515759      7.87%     85.29% # Number of insts issued each cycle (Count)
system.cpu.numIssuedDist::4                   3629561      5.18%     90.47% # Number of insts issued each cycle (Count)
system.cpu.numIssuedDist::5                   3837187      5.47%     95.94% # Number of insts issued each cycle (Count)
system.cpu.numIssuedDist::6                   1942688      2.77%     98.71% # Number of insts issued each cycle (Count)
system.cpu.numIssuedDist::7                    691892      0.99%     99.70% # Number of insts issued each cycle (Count)
system.cpu.numIssuedDist::8                    211192      0.30%    100.00% # Number of insts issued each cycle (Count)
system.cpu.numIssuedDist::overflows                 0      0.00%    100.00% # Number of insts issued each cycle (Count)
system.cpu.numIssuedDist::min_value                 0                       # Number of insts issued each cycle (Count)
system.cpu.numIssuedDist::max_value                 8                       # Number of insts issued each cycle (Count)
system.cpu.numIssuedDist::total              70125435                       # Number of insts issued each cycle (Count)
system.cpu.statFuBusy::No_OpClass                   0      0.00%      0.00% # attempts to use FU when none available (Count)
system.cpu.statFuBusy::IntAlu                   51248     11.20%     11.20% # attempts to use FU when none available (Count)
system.cpu.statFuBusy::IntMult                      0      0.00%     11.20% # attempts to use FU when none available (Count)
system.cpu.statFuBusy::IntDiv                       0      0.00%     11.20% # attempts to use FU when none available (Count)
system.cpu.statFuBusy::FloatAdd                     0      0.00%     11.20% # attempts to use FU when none available (Count)
system.cpu.statFuBusy::FloatCmp                     0      0.00%     11.20% # attempts to use FU when none available (Count)
system.cpu.statFuBusy::FloatCvt                     0      0.00%     11.20% # attempts to use FU when none available (Count)
system.cpu.statFuBusy::FloatMult                    0      0.00%     11.20% # attempts to use FU when none available (Count)
system.cpu.statFuBusy::FloatMultAcc                 0      0.00%     11.20% # attempts to use FU when none available (Count)
system.cpu.statFuBusy::FloatDiv                     0      0.00%     11.20% # attempts to use FU when none available (Count)
system.cpu.statFuBusy::FloatMisc                    0      0.00%     11.20% # attempts to use FU when none available (Count)
system.cpu.statFuBusy::FloatSqrt                    0      0.00%     11.20% # attempts to use FU when none available (Count)
system.cpu.statFuBusy::SimdAdd                      0      0.00%     11.20% # attempts to use FU when none available (Count)
system.cpu.statFuBusy::SimdAddAcc                   0      0.00%     11.20% # attempts to use FU when none available (Count)
system.cpu.statFuBusy::SimdAlu                     43      0.01%     11.21% # attempts to use FU when none available (Count)
system.cpu.statFuBusy::SimdCmp                      0      0.00%     11.21% # attempts to use FU when none available (Count)
system.cpu.statFuBusy::SimdCvt                    138      0.03%     11.24% # attempts to use FU when none available (Count)
system.cpu.statFuBusy::SimdMisc                     4      0.00%     11.24% # attempts to use FU when none available (Count)
system.cpu.statFuBusy::SimdMult                     0      0.00%     11.24% # attempts to use FU when none available (Count)
system.cpu.statFuBusy::SimdMultAcc                  0      0.00%     11.24% # attempts to use FU when none available (Count)
system.cpu.statFuBusy::SimdShift                   24      0.01%     11.25% # attempts to use FU when none available (Count)
system.cpu.statFuBusy::SimdShiftAcc                 0      0.00%     11.25% # attempts to use FU when none available (Count)
system.cpu.statFuBusy::SimdDiv                      0      0.00%     11.25% # attempts to use FU when none available (Count)
system.cpu.statFuBusy::SimdSqrt                     0      0.00%     11.25% # attempts to use FU when none available (Count)
system.cpu.statFuBusy::SimdFloatAdd                 0      0.00%     11.25% # attempts to use FU when none available (Count)
system.cpu.statFuBusy::SimdFloatAlu                 0      0.00%     11.25% # attempts to use FU when none available (Count)
system.cpu.statFuBusy::SimdFloatCmp                 0      0.00%     11.25% # attempts to use FU when none available (Count)
system.cpu.statFuBusy::SimdFloatCvt                 0      0.00%     11.25% # attempts to use FU when none available (Count)
system.cpu.statFuBusy::SimdFloatDiv                 0      0.00%     11.25% # attempts to use FU when none available (Count)
system.cpu.statFuBusy::SimdFloatMisc                0      0.00%     11.25% # attempts to use FU when none available (Count)
system.cpu.statFuBusy::SimdFloatMult                0      0.00%     11.25% # attempts to use FU when none available (Count)
system.cpu.statFuBusy::SimdFloatMultAcc             0      0.00%     11.25% # attempts to use FU when none available (Count)
system.cpu.statFuBusy::SimdFloatSqrt                0      0.00%     11.25% # attempts to use FU when none available (Count)
system.cpu.statFuBusy::SimdReduceAdd                0      0.00%     11.25% # attempts to use FU when none available (Count)
system.cpu.statFuBusy::SimdReduceAlu                0      0.00%     11.25% # attempts to use FU when none available (Count)
system.cpu.statFuBusy::SimdReduceCmp                0      0.00%     11.25% # attempts to use FU when none available (Count)
system.cpu.statFuBusy::SimdFloatReduceAdd            0      0.00%     11.25% # attempts to use FU when none available (Count)
system.cpu.statFuBusy::SimdFloatReduceCmp            0      0.00%     11.25% # attempts to use FU when none available (Count)
system.cpu.statFuBusy::SimdAes                      0      0.00%     11.25% # attempts to use FU when none available (Count)
system.cpu.statFuBusy::SimdAesMix                   0      0.00%     11.25% # attempts to use FU when none available (Count)
system.cpu.statFuBusy::SimdSha1Hash                 0      0.00%     11.25% # attempts to use FU when none available (Count)
system.cpu.statFuBusy::SimdSha1Hash2                0      0.00%     11.25% # attempts to use FU when none available (Count)
system.cpu.statFuBusy::SimdSha256Hash               0      0.00%     11.25% # attempts to use FU when none available (Count)
system.cpu.statFuBusy::SimdSha256Hash2              0      0.00%     11.25% # attempts to use FU when none available (Count)
system.cpu.statFuBusy::SimdShaSigma2                0      0.00%     11.25% # attempts to use FU when none available (Count)
system.cpu.statFuBusy::SimdShaSigma3                0      0.00%     11.25% # attempts to use FU when none available (Count)
system.cpu.statFuBusy::SimdPredAlu                  0      0.00%     11.25% # attempts to use FU when none available (Count)
system.cpu.statFuBusy::MemRead                 400642     87.57%     98.82% # attempts to use FU when none available (Count)
system.cpu.statFuBusy::MemWrite                  5018      1.10%     99.92% # attempts to use FU when none available (Count)
system.cpu.statFuBusy::FloatMemRead               259      0.06%     99.98% # attempts to use FU when none available (Count)
system.cpu.statFuBusy::FloatMemWrite              110      0.02%    100.00% # attempts to use FU when none available (Count)
system.cpu.statFuBusy::IprAccess                    0      0.00%    100.00% # attempts to use FU when none available (Count)
system.cpu.statFuBusy::InstPrefetch                 0      0.00%    100.00% # attempts to use FU when none available (Count)
system.cpu.statIssuedInstType_0::No_OpClass      1592232      1.72%      1.72% # Number of instructions issued per FU type, per thread (Count)
system.cpu.statIssuedInstType_0::IntAlu      53834608     58.24%     59.96% # Number of instructions issued per FU type, per thread (Count)
system.cpu.statIssuedInstType_0::IntMult         1913      0.00%     59.97% # Number of instructions issued per FU type, per thread (Count)
system.cpu.statIssuedInstType_0::IntDiv         44212      0.05%     60.01% # Number of instructions issued per FU type, per thread (Count)
system.cpu.statIssuedInstType_0::FloatAdd      1841564      1.99%     62.01% # Number of instructions issued per FU type, per thread (Count)
system.cpu.statIssuedInstType_0::FloatCmp            0      0.00%     62.01% # Number of instructions issued per FU type, per thread (Count)
system.cpu.statIssuedInstType_0::FloatCvt       262384      0.28%     62.29% # Number of instructions issued per FU type, per thread (Count)
system.cpu.statIssuedInstType_0::FloatMult       262144      0.28%     62.57% # Number of instructions issued per FU type, per thread (Count)
system.cpu.statIssuedInstType_0::FloatMultAcc            0      0.00%     62.57% # Number of instructions issued per FU type, per thread (Count)
system.cpu.statIssuedInstType_0::FloatDiv            0      0.00%     62.57% # Number of instructions issued per FU type, per thread (Count)
system.cpu.statIssuedInstType_0::FloatMisc            0      0.00%     62.57% # Number of instructions issued per FU type, per thread (Count)
system.cpu.statIssuedInstType_0::FloatSqrt            0      0.00%     62.57% # Number of instructions issued per FU type, per thread (Count)
system.cpu.statIssuedInstType_0::SimdAdd         6709      0.01%     62.58% # Number of instructions issued per FU type, per thread (Count)
system.cpu.statIssuedInstType_0::SimdAddAcc            0      0.00%     62.58% # Number of instructions issued per FU type, per thread (Count)
system.cpu.statIssuedInstType_0::SimdAlu       274280      0.30%     62.88% # Number of instructions issued per FU type, per thread (Count)
system.cpu.statIssuedInstType_0::SimdCmp            8      0.00%     62.88% # Number of instructions issued per FU type, per thread (Count)
system.cpu.statIssuedInstType_0::SimdCvt        13926      0.02%     62.89% # Number of instructions issued per FU type, per thread (Count)
system.cpu.statIssuedInstType_0::SimdMisc       405732      0.44%     63.33% # Number of instructions issued per FU type, per thread (Count)
system.cpu.statIssuedInstType_0::SimdMult            0      0.00%     63.33% # Number of instructions issued per FU type, per thread (Count)
system.cpu.statIssuedInstType_0::SimdMultAcc            0      0.00%     63.33% # Number of instructions issued per FU type, per thread (Count)
system.cpu.statIssuedInstType_0::SimdShift         1001      0.00%     63.33% # Number of instructions issued per FU type, per thread (Count)
system.cpu.statIssuedInstType_0::SimdShiftAcc            0      0.00%     63.33% # Number of instructions issued per FU type, per thread (Count)
system.cpu.statIssuedInstType_0::SimdDiv            0      0.00%     63.33% # Number of instructions issued per FU type, per thread (Count)
system.cpu.statIssuedInstType_0::SimdSqrt            0      0.00%     63.33% # Number of instructions issued per FU type, per thread (Count)
system.cpu.statIssuedInstType_0::SimdFloatAdd       524320      0.57%     63.90% # Number of instructions issued per FU type, per thread (Count)
system.cpu.statIssuedInstType_0::SimdFloatAlu            0      0.00%     63.90% # Number of instructions issued per FU type, per thread (Count)
system.cpu.statIssuedInstType_0::SimdFloatCmp            0      0.00%     63.90% # Number of instructions issued per FU type, per thread (Count)
system.cpu.statIssuedInstType_0::SimdFloatCvt       393257      0.43%     64.33% # Number of instructions issued per FU type, per thread (Count)
system.cpu.statIssuedInstType_0::SimdFloatDiv       131079      0.14%     64.47% # Number of instructions issued per FU type, per thread (Count)
system.cpu.statIssuedInstType_0::SimdFloatMisc            0      0.00%     64.47% # Number of instructions issued per FU type, per thread (Count)
system.cpu.statIssuedInstType_0::SimdFloatMult       393218      0.43%     64.89% # Number of instructions issued per FU type, per thread (Count)
system.cpu.statIssuedInstType_0::SimdFloatMultAcc            0      0.00%     64.89% # Number of instructions issued per FU type, per thread (Count)
system.cpu.statIssuedInstType_0::SimdFloatSqrt            0      0.00%     64.89% # Number of instructions issued per FU type, per thread (Count)
system.cpu.statIssuedInstType_0::SimdReduceAdd            0      0.00%     64.89% # Number of instructions issued per FU type, per thread (Count)
system.cpu.statIssuedInstType_0::SimdReduceAlu            0      0.00%     64.89% # Number of instructions issued per FU type, per thread (Count)
system.cpu.statIssuedInstType_0::SimdReduceCmp            0      0.00%     64.89% # Number of instructions issued per FU type, per thread (Count)
system.cpu.statIssuedInstType_0::SimdFloatReduceAdd            0      0.00%     64.89% # Number of instructions issued per FU type, per thread (Count)
system.cpu.statIssuedInstType_0::SimdFloatReduceCmp            0      0.00%     64.89% # Number of instructions issued per FU type, per thread (Count)
system.cpu.statIssuedInstType_0::SimdAes            0      0.00%     64.89% # Number of instructions issued per FU type, per thread (Count)
system.cpu.statIssuedInstType_0::SimdAesMix            0      0.00%     64.89% # Number of instructions issued per FU type, per thread (Count)
system.cpu.statIssuedInstType_0::SimdSha1Hash            0      0.00%     64.89% # Number of instructions issued per FU type, per thread (Count)
system.cpu.statIssuedInstType_0::SimdSha1Hash2            0      0.00%     64.89% # Number of instructions issued per FU type, per thread (Count)
system.cpu.statIssuedInstType_0::SimdSha256Hash            0      0.00%     64.89% # Number of instructions issued per FU type, per thread (Count)
system.cpu.statIssuedInstType_0::SimdSha256Hash2            0      0.00%     64.89% # Number of instructions issued per FU type, per thread (Count)
system.cpu.statIssuedInstType_0::SimdShaSigma2            0      0.00%     64.89% # Number of instructions issued per FU type, per thread (Count)
system.cpu.statIssuedInstType_0::SimdShaSigma3            0      0.00%     64.89% # Number of instructions issued per FU type, per thread (Count)
system.cpu.statIssuedInstType_0::SimdPredAlu            0      0.00%     64.89% # Number of instructions issued per FU type, per thread (Count)
system.cpu.statIssuedInstType_0::MemRead     19151503     20.72%     85.61% # Number of instructions issued per FU type, per thread (Count)
system.cpu.statIssuedInstType_0::MemWrite      9599347     10.39%     96.00% # Number of instructions issued per FU type, per thread (Count)
system.cpu.statIssuedInstType_0::FloatMemRead      2377221      2.57%     98.57% # Number of instructions issued per FU type, per thread (Count)
system.cpu.statIssuedInstType_0::FloatMemWrite      1322388      1.43%    100.00% # Number of instructions issued per FU type, per thread (Count)
system.cpu.statIssuedInstType_0::IprAccess            0      0.00%    100.00% # Number of instructions issued per FU type, per thread (Count)
system.cpu.statIssuedInstType_0::InstPrefetch            0      0.00%    100.00% # Number of instructions issued per FU type, per thread (Count)
system.cpu.statIssuedInstType_0::total       92433046                       # Number of instructions issued per FU type, per thread (Count)
system.cpu.issueRate                         1.249034                       # Inst issue rate ((Count/Cycle))
system.cpu.fuBusy                              457486                       # FU busy when requested (Count)
system.cpu.fuBusyRate                        0.004949                       # FU busy rate (busy events/executed inst) ((Count/Count))
system.cpu.intInstQueueReads                236928073                       # Number of integer instruction queue reads (Count)
system.cpu.intInstQueueWrites               100465085                       # Number of integer instruction queue writes (Count)
system.cpu.intInstQueueWakeupAccesses        82542667                       # Number of integer instruction queue wakeup accesses (Count)
system.cpu.fpInstQueueReads                  18522455                       # Number of floating instruction queue reads (Count)
system.cpu.fpInstQueueWrites                  9283322                       # Number of floating instruction queue writes (Count)
system.cpu.fpInstQueueWakeupAccesses          9258168                       # Number of floating instruction queue wakeup accesses (Count)
system.cpu.vecInstQueueReads                        0                       # Number of vector instruction queue reads (Count)
system.cpu.vecInstQueueWrites                       0                       # Number of vector instruction queue writes (Count)
system.cpu.vecInstQueueWakeupAccesses               0                       # Number of vector instruction queue wakeup accesses (Count)
system.cpu.intAluAccesses                    82036815                       # Number of integer alu accesses (Count)
system.cpu.fpAluAccesses                      9261485                       # Number of floating point alu accesses (Count)
system.cpu.vecAluAccesses                           0                       # Number of vector alu accesses (Count)
system.cpu.idleCycles                               0                       # Number of cycles IEW is idle (Cycle)
system.cpu.squashCycles                        151996                       # Number of cycles IEW is squashing (Cycle)
system.cpu.blockCycles                        1934091                       # Number of cycles IEW is blocking (Cycle)
system.cpu.unblockCycles                       583642                       # Number of cycles IEW is unblocking (Cycle)
system.cpu.dispatchedInsts                   96473722                       # Number of instructions dispatched to IQ (Count)
system.cpu.dispSquashedInsts                     1140                       # Number of squashed instructions skipped by dispatch (Count)
system.cpu.dispLoadInsts                     22327347                       # Number of dispatched load instructions (Count)
system.cpu.dispStoreInsts                    11326650                       # Number of dispatched store instructions (Count)
system.cpu.dispNonSpecInsts                    917866                       # Number of dispatched non-speculative instructions (Count)
system.cpu.iqFullEvents                         20750                       # Number of times the IQ has become full, causing a stall (Count)
system.cpu.lsqFullEvents                       546028                       # Number of times the LSQ has become full, causing a stall (Count)
system.cpu.memOrderViolationEvents               3316                       # Number of memory order violations (Count)
system.cpu.predictedTakenIncorrect              72677                       # Number of branches that were predicted taken incorrectly (Count)
system.cpu.predictedNotTakenIncorrect           75513                       # Number of branches that were predicted not taken incorrectly (Count)
system.cpu.branchMispredicts                   148190                       # Number of branch mispredicts detected at execute (Count)
system.cpu.numInsts                          92015485                       # Number of executed instructions (Count)
system.cpu.numLoadInsts                      21426306                       # Number of load instructions executed (Count)
system.cpu.numSquashedInsts                    417556                       # Number of squashed instructions skipped in execute (Count)
system.cpu.numSwp                                   0                       # Number of swp insts executed (Count)
system.cpu.numNop                                   0                       # Number of nop insts executed (Count)
system.cpu.numRefs                           32210381                       # Number of memory reference insts executed (Count)
system.cpu.numBranches                        6917154                       # Number of branches executed (Count)
system.cpu.numStoreInsts                     10784075                       # Number of stores executed (Count)
system.cpu.numRate                           1.243391                       # Inst execution rate ((Count/Cycle))
system.cpu.instsToCommit                     91871958                       # Cumulative count of insts sent to commit (Count)
system.cpu.writebackCount                    91800835                       # Cumulative count of insts written-back (Count)
system.cpu.producerInst                      65473842                       # Number of instructions producing a value (Count)
system.cpu.consumerInst                     105211836                       # Number of instructions consuming a value (Count)
system.cpu.wbRate                            1.240491                       # Insts written-back per cycle ((Count/Cycle))
system.cpu.wbFanout                          0.622305                       # Average fanout of values written-back ((Count/Count))
system.cpu.timesIdled                          176194                       # Number of times that the entire CPU went into an idle state and unscheduled itself (Count)
system.cpu.idleCycles                         3878198                       # Total number of cycles that the CPU has spent unscheduled due to idling (Cycle)
system.cpu.committedInsts                    46698355                       # Number of Instructions Simulated (Count)
system.cpu.committedOps                      83201955                       # Number of Ops (including micro ops) Simulated (Count)
system.cpu.cpi                               1.584716                       # CPI: Cycles Per Instruction ((Cycle/Count))
system.cpu.totalCpi                          1.584716                       # CPI: Total CPI of All Threads ((Cycle/Count))
system.cpu.ipc                               0.631028                       # IPC: Instructions Per Cycle ((Count/Cycle))
system.cpu.totalIpc                          0.631028                       # IPC: Total IPC of All Threads ((Count/Cycle))
system.cpu.intRegfileReads                  145108124                       # Number of integer regfile reads (Count)
system.cpu.intRegfileWrites                  64588691                       # Number of integer regfile writes (Count)
system.cpu.fpRegfileReads                     9162729                       # Number of floating regfile reads (Count)
system.cpu.fpRegfileWrites                    7404563                       # Number of floating regfile writes (Count)
system.cpu.ccRegfileReads                    19421876                       # number of cc regfile reads (Count)
system.cpu.ccRegfileWrites                   19722828                       # number of cc regfile writes (Count)
system.cpu.miscRegfileReads                  47215782                       # number of misc regfile reads (Count)
system.cpu.miscRegfileWrites                  1835143                       # number of misc regfile writes (Count)
system.cpu.MemDepUnit__0.insertedLoads       22327347                       # Number of loads inserted to the mem dependence unit. (Count)
system.cpu.MemDepUnit__0.insertedStores      11326650                       # Number of stores inserted to the mem dependence unit. (Count)
system.cpu.MemDepUnit__0.conflictingLoads      7625666                       # Number of conflicting loads. (Count)
system.cpu.MemDepUnit__0.conflictingStores      2153899                       # Number of conflicting stores. (Count)
system.cpu.MemDepUnit__1.insertedLoads              0                       # Number of loads inserted to the mem dependence unit. (Count)
system.cpu.MemDepUnit__1.insertedStores             0                       # Number of stores inserted to the mem dependence unit. (Count)
system.cpu.MemDepUnit__1.conflictingLoads            0                       # Number of conflicting loads. (Count)
system.cpu.MemDepUnit__1.conflictingStores            0                       # Number of conflicting stores. (Count)
system.cpu.MemDepUnit__2.insertedLoads              0                       # Number of loads inserted to the mem dependence unit. (Count)
system.cpu.MemDepUnit__2.insertedStores             0                       # Number of stores inserted to the mem dependence unit. (Count)
system.cpu.MemDepUnit__2.conflictingLoads            0                       # Number of conflicting loads. (Count)
system.cpu.MemDepUnit__2.conflictingStores            0                       # Number of conflicting stores. (Count)
system.cpu.MemDepUnit__3.insertedLoads              0                       # Number of loads inserted to the mem dependence unit. (Count)
system.cpu.MemDepUnit__3.insertedStores             0                       # Number of stores inserted to the mem dependence unit. (Count)
system.cpu.MemDepUnit__3.conflictingLoads            0                       # Number of conflicting loads. (Count)
system.cpu.MemDepUnit__3.conflictingStores            0                       # Number of conflicting stores. (Count)
system.cpu.branchPred.lookups                 7550607                       # Number of BP lookups (Count)
system.cpu.branchPred.condPredicted           2808329                       # Number of conditional branches predicted (Count)
system.cpu.branchPred.condIncorrect            146498                       # Number of conditional branches incorrect (Count)
system.cpu.branchPred.BTBLookups              4293195                       # Number of BTB lookups (Count)
system.cpu.branchPred.BTBHits                 4291145                       # Number of BTB hits (Count)
system.cpu.branchPred.BTBHitRatio            0.999523                       # BTB Hit Ratio (Ratio)
system.cpu.branchPred.RASUsed                 1589802                       # Number of times the RAS was used to get a target. (Count)
system.cpu.branchPred.RASIncorrect                 12                       # Number of incorrect RAS predictions. (Count)
system.cpu.branchPred.indirectLookups            5536                       # Number of indirect predictor lookups. (Count)
system.cpu.branchPred.indirectHits               3870                       # Number of indirect target hits. (Count)
[...]
system.mem_ctrl.rdPerTurnAround::14                13      2.15%      6.45% # Reads before turning the bus around for writes (Count)
system.mem_ctrl.rdPerTurnAround::15                15      2.48%      8.93% # Reads before turning the bus around for writes (Count)
system.mem_ctrl.rdPerTurnAround::16               527     87.11%     96.03% # Reads before turning the bus around for writes (Count)
system.mem_ctrl.rdPerTurnAround::17                14      2.31%     98.35% # Reads before turning the bus around for writes (Count)
system.mem_ctrl.rdPerTurnAround::18                 6      0.99%     99.34% # Reads before turning the bus around for writes (Count)
system.mem_ctrl.rdPerTurnAround::19                 3      0.50%     99.83% # Reads before turning the bus around for writes (Count)
system.mem_ctrl.rdPerTurnAround::20                 1      0.17%    100.00% # Reads before turning the bus around for writes (Count)
system.mem_ctrl.rdPerTurnAround::total            605                       # Reads before turning the bus around for writes (Count)
system.mem_ctrl.wrPerTurnAround::samples          605                       # Writes before turning the bus around for reads (Count)
system.mem_ctrl.wrPerTurnAround::mean       16.033058                       # Writes before turning the bus around for reads (Count)
system.mem_ctrl.wrPerTurnAround::gmean      16.029681                       # Writes before turning the bus around for reads (Count)
system.mem_ctrl.wrPerTurnAround::stdev       0.362430                       # Writes before turning the bus around for reads (Count)
system.mem_ctrl.wrPerTurnAround::16               597     98.68%     98.68% # Writes before turning the bus around for reads (Count)
system.mem_ctrl.wrPerTurnAround::17                 3      0.50%     99.17% # Writes before turning the bus around for reads (Count)
system.mem_ctrl.wrPerTurnAround::18                 3      0.50%     99.67% # Writes before turning the bus around for reads (Count)
system.mem_ctrl.wrPerTurnAround::20                 1      0.17%     99.83% # Writes before turning the bus around for reads (Count)
system.mem_ctrl.wrPerTurnAround::23                 1      0.17%    100.00% # Writes before turning the bus around for reads (Count)
system.mem_ctrl.wrPerTurnAround::total            605                       # Writes before turning the bus around for reads (Count)
system.mem_ctrl.bytesReadWrQ                    17664                       # Total number of bytes read from write queue (Byte)
system.mem_ctrl.bytesReadSys                   629184                       # Total read bytes from the system interface side (Byte)
system.mem_ctrl.bytesWrittenSys                629248                       # Total written bytes from the system interface side (Byte)
system.mem_ctrl.avgRdBWSys               798740669.27334583                       # Average system read bandwidth in Byte/s ((Byte/Second))
system.mem_ctrl.avgWrBWSys               798821916.41700101                       # Average system write bandwidth in Byte/s ((Byte/Second))
system.mem_ctrl.totGap                      787781000                       # Total gap between requests (Tick)
system.mem_ctrl.avgGap                       40064.13                       # Average gap between requests ((Tick/Count))
system.mem_ctrl.requestorReadBytes::caches.controllers1       611520                       # Per-requestor bytes read from memory (Byte)
system.mem_ctrl.requestorWriteBytes::caches.controllers1       620800                       # Per-requestor bytes write to memory (Byte)
system.mem_ctrl.requestorReadRate::caches.controllers1 776316457.624536633492                       # Per-requestor bytes read from memory rate ((Byte/Second))
system.mem_ctrl.requestorWriteRate::caches.controllers1 788097293.454527020454                       # Per-requestor bytes write to memory rate ((Byte/Second))
system.mem_ctrl.requestorReadAccesses::caches.controllers1         9831                       # Per-requestor read serviced memory accesses (Count)
system.mem_ctrl.requestorWriteAccesses::caches.controllers1         9832                       # Per-requestor write serviced memory accesses (Count)
system.mem_ctrl.requestorReadTotalLat::caches.controllers1    311893000                       # Per-requestor read total memory access latency (Tick)
system.mem_ctrl.requestorWriteTotalLat::caches.controllers1  19549970500                       # Per-requestor write total memory access latency (Tick)
system.mem_ctrl.requestorReadAvgLat::caches.controllers1     31725.46                       # Per-requestor read average memory access latency ((Tick/Count))
system.mem_ctrl.requestorWriteAvgLat::caches.controllers1   1988402.21                       # Per-requestor write average memory access latency ((Tick/Count))
system.mem_ctrl.dram.bytesRead::caches.controllers1       629184                       # Number of bytes read from this memory (Byte)
system.mem_ctrl.dram.bytesRead::total          629184                       # Number of bytes read from this memory (Byte)
system.mem_ctrl.dram.bytesWritten::caches.controllers1       629248                       # Number of bytes written to this memory (Byte)
system.mem_ctrl.dram.bytesWritten::total       629248                       # Number of bytes written to this memory (Byte)
system.mem_ctrl.dram.numReads::caches.controllers1         9831                       # Number of read requests responded to by this memory (Count)
system.mem_ctrl.dram.numReads::total             9831                       # Number of read requests responded to by this memory (Count)
system.mem_ctrl.dram.numWrites::caches.controllers1         9832                       # Number of write requests responded to by this memory (Count)
system.mem_ctrl.dram.numWrites::total            9832                       # Number of write requests responded to by this memory (Count)
system.mem_ctrl.dram.bwRead::caches.controllers1    798740669                       # Total read bandwidth from this memory ((Byte/Second))
system.mem_ctrl.dram.bwRead::total          798740669                       # Total read bandwidth from this memory ((Byte/Second))
system.mem_ctrl.dram.bwWrite::caches.controllers1    798821916                       # Write bandwidth from this memory ((Byte/Second))
system.mem_ctrl.dram.bwWrite::total         798821916                       # Write bandwidth from this memory ((Byte/Second))
system.mem_ctrl.dram.bwTotal::caches.controllers1   1597562586                       # Total bandwidth to/from this memory ((Byte/Second))
system.mem_ctrl.dram.bwTotal::total        1597562586                       # Total bandwidth to/from this memory ((Byte/Second))
system.mem_ctrl.dram.readBursts                  9555                       # Number of DRAM read bursts (Count)
system.mem_ctrl.dram.writeBursts                 9700                       # Number of DRAM write bursts (Count)
system.mem_ctrl.dram.perBankRdBursts::0           519                       # Per bank write bursts (Count)
system.mem_ctrl.dram.perBankRdBursts::1           562                       # Per bank write bursts (Count)
system.mem_ctrl.dram.perBankRdBursts::2           660                       # Per bank write bursts (Count)
system.mem_ctrl.dram.perBankRdBursts::3           635                       # Per bank write bursts (Count)
system.mem_ctrl.dram.perBankRdBursts::4           607                       # Per bank write bursts (Count)
system.mem_ctrl.dram.perBankRdBursts::5           564                       # Per bank write bursts (Count)
system.mem_ctrl.dram.perBankRdBursts::6           556                       # Per bank write bursts (Count)
system.mem_ctrl.dram.perBankRdBursts::7           632                       # Per bank write bursts (Count)
system.mem_ctrl.dram.perBankRdBursts::8           519                       # Per bank write bursts (Count)
system.mem_ctrl.dram.perBankRdBursts::9           586                       # Per bank write bursts (Count)
system.mem_ctrl.dram.perBankRdBursts::10          593                       # Per bank write bursts (Count)
system.mem_ctrl.dram.perBankRdBursts::11          533                       # Per bank write bursts (Count)
system.mem_ctrl.dram.perBankRdBursts::12          635                       # Per bank write bursts (Count)
system.mem_ctrl.dram.perBankRdBursts::13          724                       # Per bank write bursts (Count)
system.mem_ctrl.dram.perBankRdBursts::14          679                       # Per bank write bursts (Count)
system.mem_ctrl.dram.perBankRdBursts::15          551                       # Per bank write bursts (Count)
system.mem_ctrl.dram.perBankWrBursts::0           519                       # Per bank write bursts (Count)
system.mem_ctrl.dram.perBankWrBursts::1           561                       # Per bank write bursts (Count)
system.mem_ctrl.dram.perBankWrBursts::2           661                       # Per bank write bursts (Count)
system.mem_ctrl.dram.perBankWrBursts::3           652                       # Per bank write bursts (Count)
system.mem_ctrl.dram.perBankWrBursts::4           617                       # Per bank write bursts (Count)
system.mem_ctrl.dram.perBankWrBursts::5           570                       # Per bank write bursts (Count)
system.mem_ctrl.dram.perBankWrBursts::6           556                       # Per bank write bursts (Count)
system.mem_ctrl.dram.perBankWrBursts::7           640                       # Per bank write bursts (Count)
system.mem_ctrl.dram.perBankWrBursts::8           519                       # Per bank write bursts (Count)
system.mem_ctrl.dram.perBankWrBursts::9           592                       # Per bank write bursts (Count)
system.mem_ctrl.dram.perBankWrBursts::10          597                       # Per bank write bursts (Count)
system.mem_ctrl.dram.perBankWrBursts::11          555                       # Per bank write bursts (Count)
system.mem_ctrl.dram.perBankWrBursts::12          653                       # Per bank write bursts (Count)
system.mem_ctrl.dram.perBankWrBursts::13          750                       # Per bank write bursts (Count)
system.mem_ctrl.dram.perBankWrBursts::14          702                       # Per bank write bursts (Count)
system.mem_ctrl.dram.perBankWrBursts::15          556                       # Per bank write bursts (Count)
system.mem_ctrl.dram.totQLat                132736750                       # Total ticks spent queuing (Tick)
system.mem_ctrl.dram.totBusLat               47775000                       # Total ticks spent in databus transfers (Tick)
system.mem_ctrl.dram.totMemAccLat           311893000                       # Total ticks spent from burst creation until serviced by the DRAM (Tick)
system.mem_ctrl.dram.avgQLat                 13891.86                       # Average queueing delay per DRAM burst ((Tick/Count))
system.mem_ctrl.dram.avgBusLat                5000.00                       # Average bus latency per DRAM burst ((Tick/Count))
system.mem_ctrl.dram.avgMemAccLat            32641.86                       # Average memory access latency per DRAM burst ((Tick/Count))
system.mem_ctrl.dram.readRowHits                 8543                       # Number of row buffer hits during reads (Count)
system.mem_ctrl.dram.writeRowHits                8935                       # Number of row buffer hits during writes (Count)
system.mem_ctrl.dram.readRowHitRate             89.41                       # Row buffer hit rate for reads (Ratio)
system.mem_ctrl.dram.writeRowHitRate            92.11                       # Row buffer hit rate for writes (Ratio)
system.mem_ctrl.dram.bytesPerActivate::samples         1773                       # Bytes accessed per row activation (Byte)
system.mem_ctrl.dram.bytesPerActivate::mean   694.542583                       # Bytes accessed per row activation (Byte)
system.mem_ctrl.dram.bytesPerActivate::gmean   488.284455                       # Bytes accessed per row activation (Byte)
system.mem_ctrl.dram.bytesPerActivate::stdev   402.570618                       # Bytes accessed per row activation (Byte)
system.mem_ctrl.dram.bytesPerActivate::0-127          215     12.13%     12.13% # Bytes accessed per row activation (Byte)
system.mem_ctrl.dram.bytesPerActivate::128-255          229     12.92%     25.04% # Bytes accessed per row activation (Byte)
system.mem_ctrl.dram.bytesPerActivate::256-383          107      6.03%     31.08% # Bytes accessed per row activation (Byte)
system.mem_ctrl.dram.bytesPerActivate::384-511           68      3.84%     34.91% # Bytes accessed per row activation (Byte)
system.mem_ctrl.dram.bytesPerActivate::512-639           57      3.21%     38.13% # Bytes accessed per row activation (Byte)
system.mem_ctrl.dram.bytesPerActivate::640-767           43      2.43%     40.55% # Bytes accessed per row activation (Byte)
system.mem_ctrl.dram.bytesPerActivate::768-895           46      2.59%     43.15% # Bytes accessed per row activation (Byte)
system.mem_ctrl.dram.bytesPerActivate::896-1023           43      2.43%     45.57% # Bytes accessed per row activation (Byte)
system.mem_ctrl.dram.bytesPerActivate::1024-1151          965     54.43%    100.00% # Bytes accessed per row activation (Byte)
system.mem_ctrl.dram.bytesPerActivate::total         1773                       # Bytes accessed per row activation (Byte)
system.mem_ctrl.dram.bytesRead                 611520                       # Total number of bytes read from DRAM (Byte)
system.mem_ctrl.dram.bytesWritten              620800                       # Total number of bytes written to DRAM (Byte)
system.mem_ctrl.dram.avgRdBW               776.316458                       # Average DRAM read bandwidth in MiBytes/s ((Byte/Second))
system.mem_ctrl.dram.avgWrBW               788.097293                       # Average DRAM write bandwidth in MiBytes/s ((Byte/Second))
system.mem_ctrl.dram.peakBW                  12800.00                       # Theoretical peak bandwidth in MiByte/s ((Byte/Second))
system.mem_ctrl.dram.busUtil                    12.22                       # Data bus utilization in percentage (Ratio)
system.mem_ctrl.dram.busUtilRead                 6.06                       # Data bus utilization in percentage for reads (Ratio)
system.mem_ctrl.dram.busUtilWrite                6.16                       # Data bus utilization in percentage for writes (Ratio)
system.mem_ctrl.dram.pageHitRate                90.77                       # Row buffer hit rate, read and write combined (Ratio)
system.mem_ctrl.dram.power_state.pwrStateResidencyTicks::UNDEFINED    787720000                       # Cumulative time (in ticks) in various power states (Tick)
system.mem_ctrl.dram.rank0.actEnergy          6304620                       # Energy for activate commands per rank (pJ) (Joule)
system.mem_ctrl.dram.rank0.preEnergy          3335805                       # Energy for precharge commands per rank (pJ) (Joule)
system.mem_ctrl.dram.rank0.readEnergy        33807900                       # Energy for read commands per rank (pJ) (Joule)
system.mem_ctrl.dram.rank0.writeEnergy       24930720                       # Energy for write commands per rank (pJ) (Joule)
system.mem_ctrl.dram.rank0.refreshEnergy 62078640.000000                       # Energy for refresh commands per rank (pJ) (Joule)
system.mem_ctrl.dram.rank0.actBackEnergy    211525860                       # Energy for active background per rank (pJ) (Joule)
system.mem_ctrl.dram.rank0.preBackEnergy    124357440                       # Energy for precharge background per rank (pJ) (Joule)
system.mem_ctrl.dram.rank0.actPowerDownEnergy            0                       # Energy for active power-down per rank (pJ) (Joule)
system.mem_ctrl.dram.rank0.prePowerDownEnergy            0                       # Energy for precharge power-down per rank (pJ) (Joule)
system.mem_ctrl.dram.rank0.selfRefreshEnergy            0                       # Energy for self refresh per rank (pJ) (Joule)
system.mem_ctrl.dram.rank0.totalEnergy      466340985                       # Total energy per rank (pJ) (Joule)
system.mem_ctrl.dram.rank0.averagePower    592.013641                       # Core power per rank (mW) (Watt)
system.mem_ctrl.dram.rank0.totalIdleTime            0                       # Total Idle time Per DRAM Rank (Tick)
system.mem_ctrl.dram.rank0.pwrStateTime::IDLE    319604250                       # Time in different power states (Tick)
system.mem_ctrl.dram.rank0.pwrStateTime::REF     26260000                       # Time in different power states (Tick)
system.mem_ctrl.dram.rank0.pwrStateTime::SREF            0                       # Time in different power states (Tick)
system.mem_ctrl.dram.rank0.pwrStateTime::PRE_PDN            0                       # Time in different power states (Tick)
system.mem_ctrl.dram.rank0.pwrStateTime::ACT    441855750                       # Time in different power states (Tick)
system.mem_ctrl.dram.rank0.pwrStateTime::ACT_PDN            0                       # Time in different power states (Tick)
system.mem_ctrl.dram.rank1.actEnergy          6383160                       # Energy for activate commands per rank (pJ) (Joule)
system.mem_ctrl.dram.rank1.preEnergy          3392730                       # Energy for precharge commands per rank (pJ) (Joule)
system.mem_ctrl.dram.rank1.readEnergy        34414800                       # Energy for read commands per rank (pJ) (Joule)
system.mem_ctrl.dram.rank1.writeEnergy       25703280                       # Energy for write commands per rank (pJ) (Joule)
system.mem_ctrl.dram.rank1.refreshEnergy 62078640.000000                       # Energy for refresh commands per rank (pJ) (Joule)
system.mem_ctrl.dram.rank1.actBackEnergy    208325880                       # Energy for active background per rank (pJ) (Joule)
system.mem_ctrl.dram.rank1.preBackEnergy    127052160                       # Energy for precharge background per rank (pJ) (Joule)
system.mem_ctrl.dram.rank1.actPowerDownEnergy            0                       # Energy for active power-down per rank (pJ) (Joule)
system.mem_ctrl.dram.rank1.prePowerDownEnergy            0                       # Energy for precharge power-down per rank (pJ) (Joule)
system.mem_ctrl.dram.rank1.selfRefreshEnergy            0                       # Energy for self refresh per rank (pJ) (Joule)
system.mem_ctrl.dram.rank1.totalEnergy      467350650                       # Total energy per rank (pJ) (Joule)
system.mem_ctrl.dram.rank1.averagePower    593.295397                       # Core power per rank (mW) (Watt)
system.mem_ctrl.dram.rank1.totalIdleTime            0                       # Total Idle time Per DRAM Rank (Tick)
system.mem_ctrl.dram.rank1.pwrStateTime::IDLE    326557000                       # Time in different power states (Tick)
system.mem_ctrl.dram.rank1.pwrStateTime::REF     26260000                       # Time in different power states (Tick)
system.mem_ctrl.dram.rank1.pwrStateTime::SREF            0                       # Time in different power states (Tick)
system.mem_ctrl.dram.rank1.pwrStateTime::PRE_PDN            0                       # Time in different power states (Tick)
system.mem_ctrl.dram.rank1.pwrStateTime::ACT    434903000                       # Time in different power states (Tick)
system.mem_ctrl.dram.rank1.pwrStateTime::ACT_PDN            0                       # Time in different power states (Tick)
system.mem_ctrl.power_state.pwrStateResidencyTicks::UNDEFINED    787720000                       # Cumulative time (in ticks) in various power states (Tick)
system.workload.inst.arm                            0                       # number of arm instructions executed (Count)
system.workload.inst.quiesce                        0                       # number of quiesce instructions executed (Count)

---------- End Simulation Statistics   ----------
