
---------- Begin Simulation Statistics ----------
simSeconds                                   0.051290                       # Number of seconds simulated (Second)
simTicks                                  51289654000                       # Number of ticks simulated (Tick)
finalTick                                 51289654000                       # Number of ticks from beginning of simulation (restored from checkpoints and never reset) (Tick)
simFreq                                  1000000000000                       # The number of ticks per simulated second ((Tick/Second))
hostSeconds                                    183.73                       # Real time elapsed on the host (Second)
hostTickRate                                279155104                       # The number of ticks simulated per host second (ticks/s) ((Tick/Second))
hostMemory                                    9639680                       # Number of bytes of host memory used (Byte)
simInsts                                     46698355                       # Number of instructions simulated (Count)
simOps                                       83201955                       # Number of ops (including micro ops) simulated (Count)
hostInstRate                                   254166                       # Simulator instruction rate (inst/s) ((Count/Second))
hostOpRate                                     452844                       # Simulator op (including micro ops) rate (op/s) ((Count/Second))
system.caches.delayHistogram::bucket_size            4                       # delay histogram for all message (Unspecified)
system.caches.delayHistogram::max_bucket           39                       # delay histogram for all message (Unspecified)
system.caches.delayHistogram::samples           74536                       # delay histogram for all message (Unspecified)
system.caches.delayHistogram::mean           0.023425                       # delay histogram for all message (Unspecified)
system.caches.delayHistogram::stdev          0.391962                       # delay histogram for all message (Unspecified)
system.caches.delayHistogram             |       74273     99.65%     99.65% |         184      0.25%     99.89% |          74      0.10%     99.99% |           2      0.00%    100.00% |           1      0.00%    100.00% |           2      0.00%    100.00% |           0      0.00%    100.00% |           0      0.00%    100.00% |           0      0.00%    100.00% |           0      0.00%    100.00% # delay histogram for all message (Unspecified)
system.caches.delayHistogram::total             74536                       # delay histogram for all message (Unspecified)
system.caches.m_outstandReqHistSeqr::bucket_size            2                       (Unspecified)
system.caches.m_outstandReqHistSeqr::max_bucket           19                       (Unspecified)
system.caches.m_outstandReqHistSeqr::samples     27812044                       (Unspecified)
system.caches.m_outstandReqHistSeqr::mean     1.342253                       (Unspecified)
system.caches.m_outstandReqHistSeqr::gmean     1.233443                       (Unspecified)
system.caches.m_outstandReqHistSeqr::stdev     0.701316                       (Unspecified)
system.caches.m_outstandReqHistSeqr      |    20564334     73.94%     73.94% |     6774839     24.36%     98.30% |      433502      1.56%     99.86% |       12955      0.05%     99.91% |       10140      0.04%     99.94% |       10528      0.04%     99.98% |        2909      0.01%     99.99% |        1565      0.01%    100.00% |        1272      0.00%    100.00% |           0      0.00%    100.00% (Unspecified)
system.caches.m_outstandReqHistSeqr::total     27812044                       (Unspecified)
system.caches.m_latencyHistSeqr::bucket_size           64                       (Unspecified)
system.caches.m_latencyHistSeqr::max_bucket          639                       (Unspecified)
system.caches.m_latencyHistSeqr::samples     28100980                       (Unspecified)
system.caches.m_latencyHistSeqr::mean        1.118717                       (Unspecified)
system.caches.m_latencyHistSeqr::gmean       1.013024                       (Unspecified)
system.caches.m_latencyHistSeqr::stdev       3.282411                       (Unspecified)
system.caches.m_latencyHistSeqr          |    28073773     99.90%     99.90% |       23928      0.09%     99.99% |        2532      0.01%    100.00% |         319      0.00%    100.00% |         290      0.00%    100.00% |         102      0.00%    100.00% |          18      0.00%    100.00% |          17      0.00%    100.00% |           1      0.00%    100.00% |           0      0.00%    100.00% (Unspecified)
system.caches.m_latencyHistSeqr::total       28100980                       (Unspecified)
system.caches.m_hitLatencyHistSeqr::bucket_size           32                       (Unspecified)
system.caches.m_hitLatencyHistSeqr::max_bucket          319                       (Unspecified)
system.caches.m_hitLatencyHistSeqr::samples     28063456                       (Unspecified)
system.caches.m_hitLatencyHistSeqr::mean     1.010741                       (Unspecified)
system.caches.m_hitLatencyHistSeqr::gmean     1.007194                       (Unspecified)
system.caches.m_hitLatencyHistSeqr::stdev     0.204484                       (Unspecified)
system.caches.m_hitLatencyHistSeqr       |    28063275    100.00%    100.00% |          99      0.00%    100.00% |          70      0.00%    100.00% |           6      0.00%    100.00% |           3      0.00%    100.00% |           2      0.00%    100.00% |           1      0.00%    100.00% |           0      0.00%    100.00% |           0      0.00%    100.00% |           0      0.00%    100.00% (Unspecified)
system.caches.m_hitLatencyHistSeqr::total     28063456                       (Unspecified)
system.caches.m_missLatencyHistSeqr::bucket_size           64                       (Unspecified)
system.caches.m_missLatencyHistSeqr::max_bucket          639                       (Unspecified)
system.caches.m_missLatencyHistSeqr::samples        37524                       (Unspecified)
system.caches.m_missLatencyHistSeqr::mean    81.872162                       (Unspecified)
system.caches.m_missLatencyHistSeqr::gmean    75.883332                       (Unspecified)
system.caches.m_missLatencyHistSeqr::stdev    38.826971                       (Unspecified)
system.caches.m_missLatencyHistSeqr      |       10399     27.71%     27.71% |       23852     63.56%     91.28% |        2527      6.73%     98.01% |         318      0.85%     98.86% |         290      0.77%     99.63% |         102      0.27%     99.90% |          18      0.05%     99.95% |          17      0.05%    100.00% |           1      0.00%    100.00% |           0      0.00%    100.00% (Unspecified)
system.caches.m_missLatencyHistSeqr::total        37524                       (Unspecified)
system.caches.delayVCHist.vnet_1::bucket_size            1                       # delay histogram for vnet_1 (Unspecified)
system.caches.delayVCHist.vnet_1::max_bucket            9                       # delay histogram for vnet_1 (Unspecified)
system.caches.delayVCHist.vnet_1::samples        37524                       # delay histogram for vnet_1 (Unspecified)
system.caches.delayVCHist.vnet_1::mean       0.000906                       # delay histogram for vnet_1 (Unspecified)
system.caches.delayVCHist.vnet_1::stdev      0.070777                       # delay histogram for vnet_1 (Unspecified)
system.caches.delayVCHist.vnet_1         |       37517     99.98%     99.98% |           0      0.00%     99.98% |           2      0.01%     99.99% |           0      0.00%     99.99% |           0      0.00%     99.99% |           0      0.00%     99.99% |           5      0.01%    100.00% |           0      0.00%    100.00% |           0      0.00%    100.00% |           0      0.00%    100.00% # delay histogram for vnet_1 (Unspecified)
system.caches.delayVCHist.vnet_1::total         37524                       # delay histogram for vnet_1 (Unspecified)
system.caches.delayVCHist.vnet_2::bucket_size            4                       # delay histogram for vnet_2 (Unspecified)
system.caches.delayVCHist.vnet_2::max_bucket           39                       # delay histogram for vnet_2 (Unspecified)
system.caches.delayVCHist.vnet_2::samples        37012                       # delay histogram for vnet_2 (Unspecified)
system.caches.delayVCHist.vnet_2::mean       0.046255                       # delay histogram for vnet_2 (Unspecified)
system.caches.delayVCHist.vnet_2::stdev      0.550711                       # delay histogram for vnet_2 (Unspecified)
system.caches.delayVCHist.vnet_2         |       36754     99.30%     99.30% |         179      0.48%     99.79% |          74      0.20%     99.99% |           2      0.01%     99.99% |           1      0.00%     99.99% |           2      0.01%    100.00% |           0      0.00%    100.00% |           0      0.00%    100.00% |           0      0.00%    100.00% |           0      0.00%    100.00% # delay histogram for vnet_2 (Unspecified)
system.caches.delayVCHist.vnet_2::total         37012                       # delay histogram for vnet_2 (Unspecified)
system.caches.L1Cache_Controller.Load         8933770      0.00%      0.00% (Unspecified)
system.caches.L1Cache_Controller.Ifetch       8215972      0.00%      0.00% (Unspecified)
system.caches.L1Cache_Controller.Store       10951239      0.00%      0.00% (Unspecified)
system.caches.L1Cache_Controller.Data           37524      0.00%      0.00% (Unspecified)
system.caches.L1Cache_Controller.Replacement        37013      0.00%      0.00% (Unspecified)
system.caches.L1Cache_Controller.Writeback_Ack        37012      0.00%      0.00% (Unspecified)
system.caches.L1Cache_Controller.I.Load         14760      0.00%      0.00% (Unspecified)
system.caches.L1Cache_Controller.I.Ifetch         2071      0.00%      0.00% (Unspecified)
system.caches.L1Cache_Controller.I.Store        20694      0.00%      0.00% (Unspecified)
system.caches.L1Cache_Controller.M.Load       8919010      0.00%      0.00% (Unspecified)
system.caches.L1Cache_Controller.M.Ifetch      8213901      0.00%      0.00% (Unspecified)
system.caches.L1Cache_Controller.M.Store     10930545      0.00%      0.00% (Unspecified)
system.caches.L1Cache_Controller.M.Replacement        37013      0.00%      0.00% (Unspecified)
system.caches.L1Cache_Controller.MI.Writeback_Ack        37012      0.00%      0.00% (Unspecified)
system.caches.L1Cache_Controller.IS.Data        16830      0.00%      0.00% (Unspecified)
system.caches.L1Cache_Controller.IM.Data        20694      0.00%      0.00% (Unspecified)
system.caches.Directory_Controller.GETX         37524      0.00%      0.00% (Unspecified)
system.caches.Directory_Controller.PUTX         37012      0.00%      0.00% (Unspecified)
system.caches.Directory_Controller.Memory_Data        37524      0.00%      0.00% (Unspecified)
system.caches.Directory_Controller.Memory_Ack        37012      0.00%      0.00% (Unspecified)
system.caches.Directory_Controller.I.GETX        37524      0.00%      0.00% (Unspecified)
system.caches.Directory_Controller.M.PUTX        37012      0.00%      0.00% (Unspecified)
system.caches.Directory_Controller.IM.Memory_Data        37524      0.00%      0.00% (Unspecified)
system.caches.Directory_Controller.MI.Memory_Ack        37012      0.00%      0.00% (Unspecified)
system.caches.MachineType.Directory.miss_mach_latency_hist_seqr::bucket_size           64                       (Unspecified)
system.caches.MachineType.Directory.miss_mach_latency_hist_seqr::max_bucket          639                       (Unspecified)
system.caches.MachineType.Directory.miss_mach_latency_hist_seqr::samples        37524                       (Unspecified)
system.caches.MachineType.Directory.miss_mach_latency_hist_seqr::mean    81.872162                       (Unspecified)
system.caches.MachineType.Directory.miss_mach_latency_hist_seqr::gmean    75.883332                       (Unspecified)
system.caches.MachineType.Directory.miss_mach_latency_hist_seqr::stdev    38.826971                       (Unspecified)
system.caches.MachineType.Directory.miss_mach_latency_hist_seqr |       10399     27.71%     27.71% |       23852     63.56%     91.28% |        2527      6.73%     98.01% |         318      0.85%     98.86% |         290      0.77%     99.63% |         102      0.27%     99.90% |          18      0.05%     99.95% |          17      0.05%    100.00% |           1      0.00%    100.00% |           0      0.00%    100.00% (Unspecified)
system.caches.MachineType.Directory.miss_mach_latency_hist_seqr::total        37524                       (Unspecified)
system.caches.MachineType.Directory.miss_latency_hist_seqr.issue_to_initial_request::bucket_size            1                       (Unspecified)
system.caches.MachineType.Directory.miss_latency_hist_seqr.issue_to_initial_request::max_bucket            9                       (Unspecified)
system.caches.MachineType.Directory.miss_latency_hist_seqr.issue_to_initial_request::samples            1                       (Unspecified)
system.caches.MachineType.Directory.miss_latency_hist_seqr.issue_to_initial_request::stdev          nan                       (Unspecified)
system.caches.MachineType.Directory.miss_latency_hist_seqr.issue_to_initial_request |           1    100.00%    100.00% |           0      0.00%    100.00% |           0      0.00%    100.00% |           0      0.00%    100.00% |           0      0.00%    100.00% |           0      0.00%    100.00% |           0      0.00%    100.00% |           0      0.00%    100.00% |           0      0.00%    100.00% |           0      0.00%    100.00% (Unspecified)
system.caches.MachineType.Directory.miss_latency_hist_seqr.issue_to_initial_request::total            1                       (Unspecified)
system.caches.MachineType.Directory.miss_latency_hist_seqr.initial_to_forward::bucket_size            1                       (Unspecified)
system.caches.MachineType.Directory.miss_latency_hist_seqr.initial_to_forward::max_bucket            9                       (Unspecified)
system.caches.MachineType.Directory.miss_latency_hist_seqr.initial_to_forward::samples            1                       (Unspecified)
system.caches.MachineType.Directory.miss_latency_hist_seqr.initial_to_forward::stdev          nan                       (Unspecified)
system.caches.MachineType.Directory.miss_latency_hist_seqr.initial_to_forward |           1    100.00%    100.00% |           0      0.00%    100.00% |           0      0.00%    100.00% |           0      0.00%    100.00% |           0      0.00%    100.00% |           0      0.00%    100.00% |           0      0.00%    100.00% |           0      0.00%    100.00% |           0      0.00%    100.00% |           0      0.00%    100.00% (Unspecified)
system.caches.MachineType.Directory.miss_latency_hist_seqr.initial_to_forward::total            1                       (Unspecified)
system.caches.MachineType.Directory.miss_latency_hist_seqr.forward_to_first_response::bucket_size            1                       (Unspecified)
system.caches.MachineType.Directory.miss_latency_hist_seqr.forward_to_first_response::max_bucket            9                       (Unspecified)
system.caches.MachineType.Directory.miss_latency_hist_seqr.forward_to_first_response::samples            1                       (Unspecified)
system.caches.MachineType.Directory.miss_latency_hist_seqr.forward_to_first_response::stdev          nan                       (Unspecified)
system.caches.MachineType.Directory.miss_latency_hist_seqr.forward_to_first_response |           1    100.00%    100.00% |           0      0.00%    100.00% |           0      0.00%    100.00% |           0      0.00%    100.00% |           0      0.00%    100.00% |           0      0.00%    100.00% |           0      0.00%    100.00% |           0      0.00%    100.00% |           0      0.00%    100.00% |           0      0.00%    100.00% (Unspecified)
system.caches.MachineType.Directory.miss_latency_hist_seqr.forward_to_first_response::total            1                       (Unspecified)
system.caches.MachineType.Directory.miss_latency_hist_seqr.first_response_to_completion::bucket_size            8                       (Unspecified)
system.caches.MachineType.Directory.miss_latency_hist_seqr.first_response_to_completion::max_bucket           79                       (Unspecified)
system.caches.MachineType.Directory.miss_latency_hist_seqr.first_response_to_completion::samples            1                       (Unspecified)
system.caches.MachineType.Directory.miss_latency_hist_seqr.first_response_to_completion::mean           73                       (Unspecified)
system.caches.MachineType.Directory.miss_latency_hist_seqr.first_response_to_completion::gmean    73.000000                       (Unspecified)
system.caches.MachineType.Directory.miss_latency_hist_seqr.first_response_to_completion::stdev          nan                       (Unspecified)
system.caches.MachineType.Directory.miss_latency_hist_seqr.first_response_to_completion |           0      0.00%      0.00% |           0      0.00%      0.00% |           0      0.00%      0.00% |           0      0.00%      0.00% |           0      0.00%      0.00% |           0      0.00%      0.00% |           0      0.00%      0.00% |           0      0.00%      0.00% |           0      0.00%      0.00% |           1    100.00%    100.00% (Unspecified)
system.caches.MachineType.Directory.miss_latency_hist_seqr.first_response_to_completion::total            1                       (Unspecified)
system.caches.MachineType.Directory.incomplete_times_seqr        37523                       (Unspecified)
system.caches.RequestType.LD.latency_hist_seqr::bucket_size           64                       (Unspecified)
system.caches.RequestType.LD.latency_hist_seqr::max_bucket          639                       (Unspecified)
system.caches.RequestType.LD.latency_hist_seqr::samples      8933770                       (Unspecified)
system.caches.RequestType.LD.latency_hist_seqr::mean     1.133442                       (Unspecified)
system.caches.RequestType.LD.latency_hist_seqr::gmean     1.007215                       (Unspecified)
system.caches.RequestType.LD.latency_hist_seqr::stdev     3.675580                       (Unspecified)
system.caches.RequestType.LD.latency_hist_seqr |     8924902     99.90%     99.90% |        7347      0.08%     99.98% |        1157      0.01%    100.00% |         171      0.00%    100.00% |         133      0.00%    100.00% |          39      0.00%    100.00% |          12      0.00%    100.00% |           9      0.00%    100.00% |           0      0.00%    100.00% |           0      0.00%    100.00% (Unspecified)
system.caches.RequestType.LD.latency_hist_seqr::total      8933770                       (Unspecified)
system.caches.RequestType.LD.hit_latency_hist_seqr::bucket_size           32                       (Unspecified)
system.caches.RequestType.LD.hit_latency_hist_seqr::max_bucket          319                       (Unspecified)
system.caches.RequestType.LD.hit_latency_hist_seqr::samples      8919010                       (Unspecified)
system.caches.RequestType.LD.hit_latency_hist_seqr::mean     1.000665                       (Unspecified)
system.caches.RequestType.LD.hit_latency_hist_seqr::gmean     1.000050                       (Unspecified)
system.caches.RequestType.LD.hit_latency_hist_seqr::stdev     0.209665                       (Unspecified)
system.caches.RequestType.LD.hit_latency_hist_seqr |     8918923    100.00%    100.00% |          47      0.00%    100.00% |          36      0.00%    100.00% |           2      0.00%    100.00% |           1      0.00%    100.00% |           1      0.00%    100.00% |           0      0.00%    100.00% |           0      0.00%    100.00% |           0      0.00%    100.00% |           0      0.00%    100.00% (Unspecified)
system.caches.RequestType.LD.hit_latency_hist_seqr::total      8919010                       (Unspecified)
system.caches.RequestType.LD.miss_latency_hist_seqr::bucket_size           64                       (Unspecified)
system.caches.RequestType.LD.miss_latency_hist_seqr::max_bucket          639                       (Unspecified)
system.caches.RequestType.LD.miss_latency_hist_seqr::samples        14760                       (Unspecified)
system.caches.RequestType.LD.miss_latency_hist_seqr::mean    81.366260                       (Unspecified)
system.caches.RequestType.LD.miss_latency_hist_seqr::gmean    75.248846                       (Unspecified)
system.caches.RequestType.LD.miss_latency_hist_seqr::stdev    41.263888                       (Unspecified)
system.caches.RequestType.LD.miss_latency_hist_seqr |        5932     40.19%     40.19% |        7309     49.52%     89.71% |        1155      7.83%     97.53% |         171      1.16%     98.69% |         133      0.90%     99.59% |          39      0.26%     99.86% |          12      0.08%     99.94% |           9      0.06%    100.00% |           0      0.00%    100.00% |           0      0.00%    100.00% (Unspecified)
system.caches.RequestType.LD.miss_latency_hist_seqr::total        14760                       (Unspecified)
system.caches.RequestType.ST.latency_hist_seqr::bucket_size           64                       (Unspecified)
system.caches.RequestType.ST.latency_hist_seqr::max_bucket          639                       (Unspecified)
system.caches.RequestType.ST.latency_hist_seqr::samples     10484967                       (Unspecified)
system.caches.RequestType.ST.latency_hist_seqr::mean     1.174258                       (Unspecified)
system.caches.RequestType.ST.latency_hist_seqr::gmean     1.019209                       (Unspecified)
system.caches.RequestType.ST.latency_hist_seqr::stdev     3.950750                       (Unspecified)
system.caches.RequestType.ST.latency_hist_seqr |    10467591     99.83%     99.83% |       15849      0.15%     99.99% |        1191      0.01%    100.00% |         132      0.00%    100.00% |         139      0.00%    100.00% |          54      0.00%    100.00% |           3      0.00%    100.00% |           7      0.00%    100.00% |           1      0.00%    100.00% |           0      0.00%    100.00% (Unspecified)
system.caches.RequestType.ST.latency_hist_seqr::total     10484967                       (Unspecified)
system.caches.RequestType.ST.hit_latency_hist_seqr::bucket_size           16                       (Unspecified)
system.caches.RequestType.ST.hit_latency_hist_seqr::max_bucket          159                       (Unspecified)
system.caches.RequestType.ST.hit_latency_hist_seqr::samples     10464691                       (Unspecified)
system.caches.RequestType.ST.hit_latency_hist_seqr::mean     1.015454                       (Unspecified)
system.caches.RequestType.ST.hit_latency_hist_seqr::gmean     1.010695                       (Unspecified)
system.caches.RequestType.ST.hit_latency_hist_seqr::stdev     0.149958                       (Unspecified)
system.caches.RequestType.ST.hit_latency_hist_seqr |    10464670    100.00%    100.00% |           1      0.00%    100.00% |           6      0.00%    100.00% |           5      0.00%    100.00% |           5      0.00%    100.00% |           4      0.00%    100.00% |           0      0.00%    100.00% |           0      0.00%    100.00% |           0      0.00%    100.00% |           0      0.00%    100.00% (Unspecified)
system.caches.RequestType.ST.hit_latency_hist_seqr::total     10464691                       (Unspecified)
system.caches.RequestType.ST.miss_latency_hist_seqr::bucket_size           64                       (Unspecified)
system.caches.RequestType.ST.miss_latency_hist_seqr::max_bucket          639                       (Unspecified)
system.caches.RequestType.ST.miss_latency_hist_seqr::samples        20276                       (Unspecified)
system.caches.RequestType.ST.miss_latency_hist_seqr::mean    83.135184                       (Unspecified)
system.caches.RequestType.ST.miss_latency_hist_seqr::gmean    77.337591                       (Unspecified)
system.caches.RequestType.ST.miss_latency_hist_seqr::stdev    36.457581                       (Unspecified)
system.caches.RequestType.ST.miss_latency_hist_seqr |        2909     14.35%     14.35% |       15840     78.12%     92.47% |        1191      5.87%     98.34% |         132      0.65%     98.99% |         139      0.69%     99.68% |          54      0.27%     99.95% |           3      0.01%     99.96% |           7      0.03%    100.00% |           1      0.00%    100.00% |           0      0.00%    100.00% (Unspecified)
system.caches.RequestType.ST.miss_latency_hist_seqr::total        20276                       (Unspecified)
system.caches.RequestType.IFETCH.latency_hist_seqr::bucket_size           64                       (Unspecified)
system.caches.RequestType.IFETCH.latency_hist_seqr::max_bucket          639                       (Unspecified)
system.caches.RequestType.IFETCH.latency_hist_seqr::samples      8215971                       (Unspecified)
system.caches.RequestType.IFETCH.latency_hist_seqr::mean     1.018754                       (Unspecified)
system.caches.RequestType.IFETCH.latency_hist_seqr::gmean     1.001103                       (Unspecified)
system.caches.RequestType.IFETCH.latency_hist_seqr::stdev     1.334446                       (Unspecified)
system.caches.RequestType.IFETCH.latency_hist_seqr |     8215241     99.99%     99.99% |         556      0.01%    100.00% |         137      0.00%    100.00% |          11      0.00%    100.00% |          15      0.00%    100.00% |           7      0.00%    100.00% |           3      0.00%    100.00% |           1      0.00%    100.00% |           0      0.00%    100.00% |           0      0.00%    100.00% (Unspecified)
system.caches.RequestType.IFETCH.latency_hist_seqr::total      8215971                       (Unspecified)
system.caches.RequestType.IFETCH.hit_latency_hist_seqr::bucket_size           32                       (Unspecified)
system.caches.RequestType.IFETCH.hit_latency_hist_seqr::max_bucket          319                       (Unspecified)
system.caches.RequestType.IFETCH.hit_latency_hist_seqr::samples      8213901                       (Unspecified)
system.caches.RequestType.IFETCH.hit_latency_hist_seqr::mean     1.000644                       (Unspecified)
system.caches.RequestType.IFETCH.hit_latency_hist_seqr::gmean     1.000043                       (Unspecified)
system.caches.RequestType.IFETCH.hit_latency_hist_seqr::stdev     0.225379                       (Unspecified)
system.caches.RequestType.IFETCH.hit_latency_hist_seqr |     8213828    100.00%    100.00% |          40      0.00%    100.00% |          25      0.00%    100.00% |           4      0.00%    100.00% |           2      0.00%    100.00% |           1      0.00%    100.00% |           1      0.00%    100.00% |           0      0.00%    100.00% |           0      0.00%    100.00% |           0      0.00%    100.00% (Unspecified)
system.caches.RequestType.IFETCH.hit_latency_hist_seqr::total      8213901                       (Unspecified)
system.caches.RequestType.IFETCH.miss_latency_hist_seqr::bucket_size           64                       (Unspecified)
system.caches.RequestType.IFETCH.miss_latency_hist_seqr::max_bucket          639                       (Unspecified)
system.caches.RequestType.IFETCH.miss_latency_hist_seqr::samples         2070                       (Unspecified)
system.caches.RequestType.IFETCH.miss_latency_hist_seqr::mean    72.880193                       (Unspecified)
system.caches.RequestType.IFETCH.miss_latency_hist_seqr::gmean    66.840510                       (Unspecified)
system.caches.RequestType.IFETCH.miss_latency_hist_seqr::stdev    41.252785                       (Unspecified)
system.caches.RequestType.IFETCH.miss_latency_hist_seqr |        1373     66.33%     66.33% |         527     25.46%     91.79% |         134      6.47%     98.26% |          10      0.48%     98.74% |          15      0.72%     99.47% |           7      0.34%     99.81% |           3      0.14%     99.95% |           1      0.05%    100.00% |           0      0.00%    100.00% |           0      0.00%    100.00% (Unspecified)
system.caches.RequestType.IFETCH.miss_latency_hist_seqr::total         2070                       (Unspecified)
system.caches.RequestType.RMW_Read.latency_hist_seqr::bucket_size           64                       (Unspecified)
system.caches.RequestType.RMW_Read.latency_hist_seqr::max_bucket          639                       (Unspecified)
system.caches.RequestType.RMW_Read.latency_hist_seqr::samples       466272                       (Unspecified)
system.caches.RequestType.RMW_Read.latency_hist_seqr::mean     1.349064                       (Unspecified)
system.caches.RequestType.RMW_Read.latency_hist_seqr::gmean     1.215120                       (Unspecified)
system.caches.RequestType.RMW_Read.latency_hist_seqr::stdev     2.796570                       (Unspecified)
system.caches.RequestType.RMW_Read.latency_hist_seqr |      466039     99.95%     99.95% |         176      0.04%     99.99% |          47      0.01%    100.00% |           5      0.00%    100.00% |           3      0.00%    100.00% |           2      0.00%    100.00% |           0      0.00%    100.00% |           0      0.00%    100.00% |           0      0.00%    100.00% |           0      0.00%    100.00% (Unspecified)
system.caches.RequestType.RMW_Read.latency_hist_seqr::total       466272                       (Unspecified)
system.caches.RequestType.RMW_Read.hit_latency_hist_seqr::bucket_size            4                       (Unspecified)
system.caches.RequestType.RMW_Read.hit_latency_hist_seqr::max_bucket           39                       (Unspecified)
system.caches.RequestType.RMW_Read.hit_latency_hist_seqr::samples       465854                       (Unspecified)
system.caches.RequestType.RMW_Read.hit_latency_hist_seqr::mean     1.275801                       (Unspecified)
system.caches.RequestType.RMW_Read.hit_latency_hist_seqr::gmean     1.210616                       (Unspecified)
system.caches.RequestType.RMW_Read.hit_latency_hist_seqr::stdev     0.449446                       (Unspecified)
system.caches.RequestType.RMW_Read.hit_latency_hist_seqr |      465853    100.00%    100.00% |           0      0.00%    100.00% |           0      0.00%    100.00% |           0      0.00%    100.00% |           0      0.00%    100.00% |           0      0.00%    100.00% |           0      0.00%    100.00% |           0      0.00%    100.00% |           1      0.00%    100.00% |           0      0.00%    100.00% (Unspecified)
system.caches.RequestType.RMW_Read.hit_latency_hist_seqr::total       465854                       (Unspecified)
system.caches.RequestType.RMW_Read.miss_latency_hist_seqr::bucket_size           64                       (Unspecified)
system.caches.RequestType.RMW_Read.miss_latency_hist_seqr::max_bucket          639                       (Unspecified)
system.caches.RequestType.RMW_Read.miss_latency_hist_seqr::samples          418                       (Unspecified)
system.caches.RequestType.RMW_Read.miss_latency_hist_seqr::mean           83                       (Unspecified)
system.caches.RequestType.RMW_Read.miss_latency_hist_seqr::gmean    76.190547                       (Unspecified)
system.caches.RequestType.RMW_Read.miss_latency_hist_seqr::stdev    42.782591                       (Unspecified)
system.caches.RequestType.RMW_Read.miss_latency_hist_seqr |         185     44.26%     44.26% |         176     42.11%     86.36% |          47     11.24%     97.61% |           5      1.20%     98.80% |           3      0.72%     99.52% |           2      0.48%    100.00% |           0      0.00%    100.00% |           0      0.00%    100.00% |           0      0.00%    100.00% |           0      0.00%    100.00% (Unspecified)
system.caches.RequestType.RMW_Read.miss_latency_hist_seqr::total          418                       (Unspecified)
system.caches.RequestTypeMachineType.LD.Directory.miss_type_mach_latency_hist_seqr::bucket_size           64                       (Unspecified)
system.caches.RequestTypeMachineType.LD.Directory.miss_type_mach_latency_hist_seqr::max_bucket          639                       (Unspecified)
system.caches.RequestTypeMachineType.LD.Directory.miss_type_mach_latency_hist_seqr::samples        14760                       (Unspecified)
system.caches.RequestTypeMachineType.LD.Directory.miss_type_mach_latency_hist_seqr::mean    81.366260                       (Unspecified)
system.caches.RequestTypeMachineType.LD.Directory.miss_type_mach_latency_hist_seqr::gmean    75.248846                       (Unspecified)
system.caches.RequestTypeMachineType.LD.Directory.miss_type_mach_latency_hist_seqr::stdev    41.263888                       (Unspecified)
system.caches.RequestTypeMachineType.LD.Directory.miss_type_mach_latency_hist_seqr |        5932     40.19%     40.19% |        7309     49.52%     89.71% |        1155      7.83%     97.53% |         171      1.16%     98.69% |         133      0.90%     99.59% |          39      0.26%     99.86% |          12      0.08%     99.94% |           9      0.06%    100.00% |           0      0.00%    100.00% |           0      0.00%    100.00% (Unspecified)
system.caches.RequestTypeMachineType.LD.Directory.miss_type_mach_latency_hist_seqr::total        14760                       (Unspecified)
system.caches.RequestTypeMachineType.ST.Directory.miss_type_mach_latency_hist_seqr::bucket_size           64                       (Unspecified)
system.caches.RequestTypeMachineType.ST.Directory.miss_type_mach_latency_hist_seqr::max_bucket          639                       (Unspecified)
system.caches.RequestTypeMachineType.ST.Directory.miss_type_mach_latency_hist_seqr::samples        20276                       (Unspecified)
system.caches.RequestTypeMachineType.ST.Directory.miss_type_mach_latency_hist_seqr::mean    83.135184                       (Unspecified)
system.caches.RequestTypeMachineType.ST.Directory.miss_type_mach_latency_hist_seqr::gmean    77.337591                       (Unspecified)
system.caches.RequestTypeMachineType.ST.Directory.miss_type_mach_latency_hist_seqr::stdev    36.457581                       (Unspecified)
system.caches.RequestTypeMachineType.ST.Directory.miss_type_mach_latency_hist_seqr |        2909     14.35%     14.35% |       15840     78.12%     92.47% |        1191      5.87%     98.34% |         132      0.65%     98.99% |         139      0.69%     99.68% |          54      0.27%     99.95% |           3      0.01%     99.96% |           7      0.03%    100.00% |           1      0.00%    100.00% |           0      0.00%    100.00% (Unspecified)
system.caches.RequestTypeMachineType.ST.Directory.miss_type_mach_latency_hist_seqr::total        20276                       (Unspecified)
system.caches.RequestTypeMachineType.IFETCH.Directory.miss_type_mach_latency_hist_seqr::bucket_size           64                       (Unspecified)
system.caches.RequestTypeMachineType.IFETCH.Directory.miss_type_mach_latency_hist_seqr::max_bucket          639                       (Unspecified)
system.caches.RequestTypeMachineType.IFETCH.Directory.miss_type_mach_latency_hist_seqr::samples         2070                       (Unspecified)
system.caches.RequestTypeMachineType.IFETCH.Directory.miss_type_mach_latency_hist_seqr::mean    72.880193                       (Unspecified)
system.caches.RequestTypeMachineType.IFETCH.Directory.miss_type_mach_latency_hist_seqr::gmean    66.840510                       (Unspecified)
system.caches.RequestTypeMachineType.IFETCH.Directory.miss_type_mach_latency_hist_seqr::stdev    41.252785                       (Unspecified)
system.caches.RequestTypeMachineType.IFETCH.Directory.miss_type_mach_latency_hist_seqr |        1373     66.33%     66.33% |         527     25.46%     91.79% |         134      6.47%     98.26% |          10      0.48%     98.74% |          15      0.72%     99.47% |           7      0.34%     99.81% |           3      0.14%     99.95% |           1      0.05%    100.00% |           0      0.00%    100.00% |           0      0.00%    100.00% (Unspecified)
system.caches.RequestTypeMachineType.IFETCH.Directory.miss_type_mach_latency_hist_seqr::total         2070                       (Unspecified)
system.caches.RequestTypeMachineType.RMW_Read.Directory.miss_type_mach_latency_hist_seqr::bucket_size           64                       (Unspecified)
system.caches.RequestTypeMachineType.RMW_Read.Directory.miss_type_mach_latency_hist_seqr::max_bucket          639                       (Unspecified)
system.caches.RequestTypeMachineType.RMW_Read.Directory.miss_type_mach_latency_hist_seqr::samples          418                       (Unspecified)
system.caches.RequestTypeMachineType.RMW_Read.Directory.miss_type_mach_latency_hist_seqr::mean           83                       (Unspecified)
system.caches.RequestTypeMachineType.RMW_Read.Directory.miss_type_mach_latency_hist_seqr::gmean    76.190547                       (Unspecified)
system.caches.RequestTypeMachineType.RMW_Read.Directory.miss_type_mach_latency_hist_seqr::stdev    42.782591                       (Unspecified)
system.caches.RequestTypeMachineType.RMW_Read.Directory.miss_type_mach_latency_hist_seqr |         185     44.26%     44.26% |         176     42.11%     86.36% |          47     11.24%     97.61% |           5      1.20%     98.80% |           3      0.72%     99.52% |           2      0.48%    100.00% |           0      0.00%    100.00% |           0      0.00%    100.00% |           0      0.00%    100.00% |           0      0.00%    100.00% (Unspecified)
system.caches.RequestTypeMachineType.RMW_Read.Directory.miss_type_mach_latency_hist_seqr::total          418                       (Unspecified)
system.caches.controllers0.delayHistogram::samples        74536                       # delay_histogram (Unspecified)
system.caches.controllers0.delayHistogram::mean     0.023425                       # delay_histogram (Unspecified)
system.caches.controllers0.delayHistogram::stdev     0.391962                       # delay_histogram (Unspecified)
system.caches.controllers0.delayHistogram::0-3        74273     99.65%     99.65% # delay_histogram (Unspecified)
system.caches.controllers0.delayHistogram::4-7          184      0.25%     99.89% # delay_histogram (Unspecified)
system.caches.controllers0.delayHistogram::8-11           74      0.10%     99.99% # delay_histogram (Unspecified)
system.caches.controllers0.delayHistogram::12-15            2      0.00%    100.00% # delay_histogram (Unspecified)
system.caches.controllers0.delayHistogram::16-19            1      0.00%    100.00% # delay_histogram (Unspecified)
system.caches.controllers0.delayHistogram::20-23            2      0.00%    100.00% # delay_histogram (Unspecified)
system.caches.controllers0.delayHistogram::total        74536                       # delay_histogram (Unspecified)
system.caches.controllers0.cacheMemory.m_demand_hits     28063456                       # Number of cache demand hits (Unspecified)
system.caches.controllers0.cacheMemory.m_demand_misses        37525                       # Number of cache demand misses (Unspecified)
system.caches.controllers0.cacheMemory.m_demand_accesses     28100981                       # Number of cache demand accesses (Unspecified)
system.caches.controllers0.forwardToCache.m_buf_msgs     0.000722                       # Average number of messages in buffer (Unspecified)
system.caches.controllers0.forwardToCache.m_stall_time  5000.365824                       # Average number of cycles messages are stalled in this MB (Unspecified)
system.caches.controllers0.mandatoryQueue.m_buf_msgs     0.548312                       # Average number of messages in buffer (Unspecified)
system.caches.controllers0.mandatoryQueue.m_stall_time  1000.974349                       # Average number of cycles messages are stalled in this MB (Unspecified)
system.caches.controllers0.power_state.pwrStateResidencyTicks::UNDEFINED  51289654000                       # Cumulative time (in ticks) in various power states (Tick)
system.caches.controllers0.requestFromCache.m_buf_msgs     0.002907                       # Average number of messages in buffer (Unspecified)
system.caches.controllers0.requestFromCache.m_stall_time  1999.999883                       # Average number of cycles messages are stalled in this MB (Unspecified)
system.caches.controllers0.responseToCache.m_buf_msgs     0.000732                       # Average number of messages in buffer (Unspecified)
system.caches.controllers0.responseToCache.m_stall_time  5000.020024                       # Average number of cycles messages are stalled in this MB (Unspecified)
system.caches.controllers1.forwardFromDir.m_buf_msgs     0.000722                       # Average number of messages in buffer (Unspecified)
system.caches.controllers1.forwardFromDir.m_stall_time   999.813159                       # Average number of cycles messages are stalled in this MB (Unspecified)
system.caches.controllers1.power_state.pwrStateResidencyTicks::UNDEFINED  51289654000                       # Cumulative time (in ticks) in various power states (Tick)
system.caches.controllers1.requestToDir.m_buf_msgs     0.001453                       # Average number of messages in buffer (Unspecified)
system.caches.controllers1.requestToDir.m_stall_time 10007.332551                       # Average number of cycles messages are stalled in this MB (Unspecified)
system.caches.controllers1.requestToMemory.m_buf_msgs     0.001453                       # Average number of messages in buffer (Unspecified)
system.caches.controllers1.requestToMemory.m_stall_time  1000.003665                       # Average number of cycles messages are stalled in this MB (Unspecified)
system.caches.controllers1.responseFromDir.m_buf_msgs     0.000732                       # Average number of messages in buffer (Unspecified)
system.caches.controllers1.responseFromDir.m_stall_time   999.998655                       # Average number of cycles messages are stalled in this MB (Unspecified)
system.caches.controllers1.responseFromMemory.m_buf_msgs     0.001814                       # Average number of messages in buffer (Unspecified)
system.caches.controllers1.responseFromMemory.m_stall_time   999.998674                       # Average number of cycles messages are stalled in this MB (Unspecified)
system.caches.network.msg_count.Control         75048                       (Unspecified)
system.caches.network.msg_byte.Control         600384                       (Unspecified)
system.caches.network.msg_count.Data            74025                       (Unspecified)
system.caches.network.msg_byte.Data           5329800                       (Unspecified)
system.caches.network.msg_count.Response_Data        75048                       (Unspecified)
system.caches.network.msg_byte.Response_Data      5403456                       (Unspecified)
system.caches.network.msg_count.Writeback_Control        74024                       (Unspecified)
system.caches.network.msg_byte.Writeback_Control       592192                       (Unspecified)
system.caches.network.int_link_buffers2.m_buf_msgs     0.001453                       # Average number of messages in buffer (Unspecified)
system.caches.network.int_link_buffers2.m_stall_time  8007.333136                       # Average number of cycles messages are stalled in this MB (Unspecified)
system.caches.network.int_link_buffers8.m_buf_msgs     0.000722                       # Average number of messages in buffer (Unspecified)
system.caches.network.int_link_buffers8.m_stall_time  3000.739779                       # Average number of cycles messages are stalled in this MB (Unspecified)
system.caches.network.int_link_buffers9.m_buf_msgs     0.000732                       # Average number of messages in buffer (Unspecified)
system.caches.network.int_link_buffers9.m_stall_time  3000.022987                       # Average number of cycles messages are stalled in this MB (Unspecified)
system.caches.network.power_state.pwrStateResidencyTicks::UNDEFINED  51289654000                       # Cumulative time (in ticks) in various power states (Tick)
system.caches.network.routers0.percent_links_utilized     0.363310                       (Unspecified)
system.caches.network.routers0.msg_count.Control::2        37524                       (Unspecified)
system.caches.network.routers0.msg_bytes.Control::2       300192                       (Unspecified)
system.caches.network.routers0.msg_count.Data::2        37013                       (Unspecified)
system.caches.network.routers0.msg_bytes.Data::2      2664936                       (Unspecified)
system.caches.network.routers0.msg_count.Response_Data::4        37524                       (Unspecified)
system.caches.network.routers0.msg_bytes.Response_Data::4      2701728                       (Unspecified)
system.caches.network.routers0.msg_count.Writeback_Control::3        37012                       (Unspecified)
system.caches.network.routers0.msg_bytes.Writeback_Control::3       296096                       (Unspecified)
system.caches.network.routers0.port_buffers3.m_buf_msgs     0.000722                       # Average number of messages in buffer (Unspecified)
system.caches.network.routers0.port_buffers3.m_stall_time  4000.552821                       # Average number of cycles messages are stalled in this MB (Unspecified)
system.caches.network.routers0.port_buffers4.m_buf_msgs     0.000732                       # Average number of messages in buffer (Unspecified)
system.caches.network.routers0.port_buffers4.m_stall_time  4000.021525                       # Average number of cycles messages are stalled in this MB (Unspecified)
system.caches.network.routers0.port_buffers7.m_buf_msgs     0.004717                       # Average number of messages in buffer (Unspecified)
system.caches.network.routers0.port_buffers7.m_stall_time  7007.333370                       # Average number of cycles messages are stalled in this MB (Unspecified)
system.caches.network.routers0.power_state.pwrStateResidencyTicks::UNDEFINED  51289654000                       # Cumulative time (in ticks) in various power states (Tick)
system.caches.network.routers0.throttle00.link_utilization     0.365306                       (Unspecified)
system.caches.network.routers0.throttle00.msg_count.Response_Data::4        37524                       (Unspecified)
system.caches.network.routers0.throttle00.msg_bytes.Response_Data::4      2701728                       (Unspecified)
system.caches.network.routers0.throttle00.msg_count.Writeback_Control::3        37012                       (Unspecified)
system.caches.network.routers0.throttle00.msg_bytes.Writeback_Control::3       296096                       (Unspecified)
system.caches.network.routers0.throttle01.link_utilization     0.361315                       (Unspecified)
system.caches.network.routers0.throttle01.msg_count.Control::2        37524                       (Unspecified)
system.caches.network.routers0.throttle01.msg_bytes.Control::2       300192                       (Unspecified)
system.caches.network.routers0.throttle01.msg_count.Data::2        37013                       (Unspecified)
system.caches.network.routers0.throttle01.msg_bytes.Data::2      2664936                       (Unspecified)
system.caches.network.routers1.percent_links_utilized     0.363309                       (Unspecified)
system.caches.network.routers1.msg_count.Control::2        37524                       (Unspecified)
system.caches.network.routers1.msg_bytes.Control::2       300192                       (Unspecified)
system.caches.network.routers1.msg_count.Data::2        37012                       (Unspecified)
system.caches.network.routers1.msg_bytes.Data::2      2664864                       (Unspecified)
system.caches.network.routers1.msg_count.Response_Data::4        37524                       (Unspecified)
system.caches.network.routers1.msg_bytes.Response_Data::4      2701728                       (Unspecified)
system.caches.network.routers1.msg_count.Writeback_Control::3        37012                       (Unspecified)
system.caches.network.routers1.msg_bytes.Writeback_Control::3       296096                       (Unspecified)
system.caches.network.routers1.port_buffers2.m_buf_msgs     0.001453                       # Average number of messages in buffer (Unspecified)
system.caches.network.routers1.port_buffers2.m_stall_time  9007.332863                       # Average number of cycles messages are stalled in this MB (Unspecified)
system.caches.network.routers1.port_buffers6.m_buf_msgs     0.000738                       # Average number of messages in buffer (Unspecified)
system.caches.network.routers1.port_buffers6.m_stall_time  2000.926698                       # Average number of cycles messages are stalled in this MB (Unspecified)
system.caches.network.routers1.port_buffers7.m_buf_msgs     0.000732                       # Average number of messages in buffer (Unspecified)
system.caches.network.routers1.port_buffers7.m_stall_time  2000.024410                       # Average number of cycles messages are stalled in this MB (Unspecified)
system.caches.network.routers1.power_state.pwrStateResidencyTicks::UNDEFINED  51289654000                       # Cumulative time (in ticks) in various power states (Tick)
system.caches.network.routers1.throttle00.link_utilization     0.361313                       (Unspecified)
system.caches.network.routers1.throttle00.msg_count.Control::2        37524                       (Unspecified)
system.caches.network.routers1.throttle00.msg_bytes.Control::2       300192                       (Unspecified)
system.caches.network.routers1.throttle00.msg_count.Data::2        37012                       (Unspecified)
system.caches.network.routers1.throttle00.msg_bytes.Data::2      2664864                       (Unspecified)
system.caches.network.routers1.throttle01.link_utilization     0.365306                       (Unspecified)
system.caches.network.routers1.throttle01.msg_count.Response_Data::4        37524                       (Unspecified)
system.caches.network.routers1.throttle01.msg_bytes.Response_Data::4      2701728                       (Unspecified)
system.caches.network.routers1.throttle01.msg_count.Writeback_Control::3        37012                       (Unspecified)
system.caches.network.routers1.throttle01.msg_bytes.Writeback_Control::3       296096                       (Unspecified)
system.caches.power_state.pwrStateResidencyTicks::UNDEFINED  51289654000                       # Cumulative time (in ticks) in various power states (Tick)
system.caches.sequencers.power_state.pwrStateResidencyTicks::UNDEFINED  51289654000                       # Cumulative time (in ticks) in various power states (Tick)
system.caches.sys_port_proxy.power_state.pwrStateResidencyTicks::UNDEFINED  51289654000                       # Cumulative time (in ticks) in various power states (Tick)
system.clk_domain.clock                          1000                       # Clock period in ticks (Tick)
system.clk_domain.voltage_domain.voltage            1                       # Voltage in Volts (Volt)
system.cpu.numCycles                         51289655                       # Number of cpu cycles simulated (Cycle)
system.cpu.numWorkItemsStarted                      0                       # Number of work items this cpu started (Count)
system.cpu.numWorkItemsCompleted                    0                       # Number of work items this cpu completed (Count)
system.cpu.instsAdded                        95181860                       # Number of instructions added to the IQ (excludes non-spec) (Count)
system.cpu.nonSpecInstsAdded                   917743                       # Number of non-speculative instructions added to the IQ (Count)
system.cpu.instsIssued                       92150968                       # Number of instructions issued (Count)
system.cpu.squashedInstsIssued                   2172                       # Number of squashed instructions issued (Count)
system.cpu.squashedInstsExamined             12897628                       # Number of squashed instructions iterated over during squash; mainly for profiling (Count)
system.cpu.squashedOperandsExamined          15346252                       # Number of squashed operands that are examined and possibly removed from graph (Count)
system.cpu.squashedNonSpecRemoved                 103                       # Number of squashed non-spec instructions that were removed (Count)
system.cpu.numIssuedDist::samples            51227970                       # Number of insts issued each cycle (Count)
system.cpu.numIssuedDist::mean               1.798841                       # Number of insts issued each cycle (Count)
system.cpu.numIssuedDist::stdev              2.043564                       # Number of insts issued each cycle (Count)
system.cpu.numIssuedDist::underflows                0      0.00%      0.00% # Number of insts issued each cycle (Count)
system.cpu.numIssuedDist::0                  20959837     40.91%     40.91% # Number of insts issued each cycle (Count)
system.cpu.numIssuedDist::1                   8353534     16.31%     57.22% # Number of insts issued each cycle (Count)
system.cpu.numIssuedDist::2                   5263286     10.27%     67.50% # Number of insts issued each cycle (Count)
system.cpu.numIssuedDist::3                   5686653     11.10%     78.60% # Number of insts issued each cycle (Count)
system.cpu.numIssuedDist::4                   3407153      6.65%     85.25% # Number of insts issued each cycle (Count)
system.cpu.numIssuedDist::5                   4005846      7.82%     93.07% # Number of insts issued each cycle (Count)
system.cpu.numIssuedDist::6                   2525377      4.93%     98.00% # Number of insts issued each cycle (Count)
system.cpu.numIssuedDist::7                    809473      1.58%     99.58% # Number of insts issued each cycle (Count)
system.cpu.numIssuedDist::8                    216811      0.42%    100.00% # Number of insts issued each cycle (Count)
system.cpu.numIssuedDist::overflows                 0      0.00%    100.00% # Number of insts issued each cycle (Count)
system.cpu.numIssuedDist::min_value                 0                       # Number of insts issued each cycle (Count)
system.cpu.numIssuedDist::max_value                 8                       # Number of insts issued each cycle (Count)
system.cpu.numIssuedDist::total              51227970                       # Number of insts issued each cycle (Count)
system.cpu.statFuBusy::No_OpClass                   0      0.00%      0.00% # attempts to use FU when none available (Count)
system.cpu.statFuBusy::IntAlu                   62624     10.95%     10.95% # attempts to use FU when none available (Count)
system.cpu.statFuBusy::IntMult                      0      0.00%     10.95% # attempts to use FU when none available (Count)
system.cpu.statFuBusy::IntDiv                       0      0.00%     10.95% # attempts to use FU when none available (Count)
system.cpu.statFuBusy::FloatAdd                     0      0.00%     10.95% # attempts to use FU when none available (Count)
system.cpu.statFuBusy::FloatCmp                     0      0.00%     10.95% # attempts to use FU when none available (Count)
system.cpu.statFuBusy::FloatCvt                     0      0.00%     10.95% # attempts to use FU when none available (Count)
system.cpu.statFuBusy::FloatMult                    0      0.00%     10.95% # attempts to use FU when none available (Count)
system.cpu.statFuBusy::FloatMultAcc                 0      0.00%     10.95% # attempts to use FU when none available (Count)
system.cpu.statFuBusy::FloatDiv                     0      0.00%     10.95% # attempts to use FU when none available (Count)
system.cpu.statFuBusy::FloatMisc                    0      0.00%     10.95% # attempts to use FU when none available (Count)
system.cpu.statFuBusy::FloatSqrt                    0      0.00%     10.95% # attempts to use FU when none available (Count)
system.cpu.statFuBusy::SimdAdd                      2      0.00%     10.95% # attempts to use FU when none available (Count)
system.cpu.statFuBusy::SimdAddAcc                   0      0.00%     10.95% # attempts to use FU when none available (Count)
system.cpu.statFuBusy::SimdAlu                     53      0.01%     10.96% # attempts to use FU when none available (Count)
system.cpu.statFuBusy::SimdCmp                      0      0.00%     10.96% # attempts to use FU when none available (Count)
system.cpu.statFuBusy::SimdCvt                    869      0.15%     11.11% # attempts to use FU when none available (Count)
system.cpu.statFuBusy::SimdMisc                     4      0.00%     11.11% # attempts to use FU when none available (Count)
system.cpu.statFuBusy::SimdMult                     0      0.00%     11.11% # attempts to use FU when none available (Count)
system.cpu.statFuBusy::SimdMultAcc                  0      0.00%     11.11% # attempts to use FU when none available (Count)
system.cpu.statFuBusy::SimdShift                   40      0.01%     11.12% # attempts to use FU when none available (Count)
system.cpu.statFuBusy::SimdShiftAcc                 0      0.00%     11.12% # attempts to use FU when none available (Count)
system.cpu.statFuBusy::SimdDiv                      0      0.00%     11.12% # attempts to use FU when none available (Count)
system.cpu.statFuBusy::SimdSqrt                     0      0.00%     11.12% # attempts to use FU when none available (Count)
system.cpu.statFuBusy::SimdFloatAdd                 0      0.00%     11.12% # attempts to use FU when none available (Count)
system.cpu.statFuBusy::SimdFloatAlu                 0      0.00%     11.12% # attempts to use FU when none available (Count)
system.cpu.statFuBusy::SimdFloatCmp                 0      0.00%     11.12% # attempts to use FU when none available (Count)
system.cpu.statFuBusy::SimdFloatCvt                 0      0.00%     11.12% # attempts to use FU when none available (Count)
system.cpu.statFuBusy::SimdFloatDiv                 0      0.00%     11.12% # attempts to use FU when none available (Count)
system.cpu.statFuBusy::SimdFloatMisc                0      0.00%     11.12% # attempts to use FU when none available (Count)
system.cpu.statFuBusy::SimdFloatMult                0      0.00%     11.12% # attempts to use FU when none available (Count)
system.cpu.statFuBusy::SimdFloatMultAcc             0      0.00%     11.12% # attempts to use FU when none available (Count)
system.cpu.statFuBusy::SimdFloatSqrt                0      0.00%     11.12% # attempts to use FU when none available (Count)
system.cpu.statFuBusy::SimdReduceAdd                0      0.00%     11.12% # attempts to use FU when none available (Count)
system.cpu.statFuBusy::SimdReduceAlu                0      0.00%     11.12% # attempts to use FU when none available (Count)
system.cpu.statFuBusy::SimdReduceCmp                0      0.00%     11.12% # attempts to use FU when none available (Count)
system.cpu.statFuBusy::SimdFloatReduceAdd            0      0.00%     11.12% # attempts to use FU when none available (Count)
system.cpu.statFuBusy::SimdFloatReduceCmp            0      0.00%     11.12% # attempts to use FU when none available (Count)
system.cpu.statFuBusy::SimdAes                      0      0.00%     11.12% # attempts to use FU when none available (Count)
system.cpu.statFuBusy::SimdAesMix                   0      0.00%     11.12% # attempts to use FU when none available (Count)
system.cpu.statFuBusy::SimdSha1Hash                 0      0.00%     11.12% # attempts to use FU when none available (Count)
system.cpu.statFuBusy::SimdSha1Hash2                0      0.00%     11.12% # attempts to use FU when none available (Count)
system.cpu.statFuBusy::SimdSha256Hash               0      0.00%     11.12% # attempts to use FU when none available (Count)
system.cpu.statFuBusy::SimdSha256Hash2              0      0.00%     11.12% # attempts to use FU when none available (Count)
system.cpu.statFuBusy::SimdShaSigma2                0      0.00%     11.12% # attempts to use FU when none available (Count)
system.cpu.statFuBusy::SimdShaSigma3                0      0.00%     11.12% # attempts to use FU when none available (Count)
system.cpu.statFuBusy::SimdPredAlu                  0      0.00%     11.12% # attempts to use FU when none available (Count)
system.cpu.statFuBusy::MemRead                 501220     87.63%     98.75% # attempts to use FU when none available (Count)
system.cpu.statFuBusy::MemWrite                  6776      1.18%     99.93% # attempts to use FU when none available (Count)
system.cpu.statFuBusy::FloatMemRead               213      0.04%     99.97% # attempts to use FU when none available (Count)
system.cpu.statFuBusy::FloatMemWrite              174      0.03%    100.00% # attempts to use FU when none available (Count)
system.cpu.statFuBusy::IprAccess                    0      0.00%    100.00% # attempts to use FU when none available (Count)
system.cpu.statFuBusy::InstPrefetch                 0      0.00%    100.00% # attempts to use FU when none available (Count)
system.cpu.statIssuedInstType_0::No_OpClass      1593861      1.73%      1.73% # Number of instructions issued per FU type, per thread (Count)
system.cpu.statIssuedInstType_0::IntAlu      53666957     58.24%     59.97% # Number of instructions issued per FU type, per thread (Count)
system.cpu.statIssuedInstType_0::IntMult         1913      0.00%     59.97% # Number of instructions issued per FU type, per thread (Count)
system.cpu.statIssuedInstType_0::IntDiv         37225      0.04%     60.01% # Number of instructions issued per FU type, per thread (Count)
system.cpu.statIssuedInstType_0::FloatAdd      1842210      2.00%     62.01% # Number of instructions issued per FU type, per thread (Count)
system.cpu.statIssuedInstType_0::FloatCmp            0      0.00%     62.01% # Number of instructions issued per FU type, per thread (Count)
system.cpu.statIssuedInstType_0::FloatCvt       262384      0.28%     62.29% # Number of instructions issued per FU type, per thread (Count)
system.cpu.statIssuedInstType_0::FloatMult       262144      0.28%     62.58% # Number of instructions issued per FU type, per thread (Count)
system.cpu.statIssuedInstType_0::FloatMultAcc            0      0.00%     62.58% # Number of instructions issued per FU type, per thread (Count)
system.cpu.statIssuedInstType_0::FloatDiv            0      0.00%     62.58% # Number of instructions issued per FU type, per thread (Count)
system.cpu.statIssuedInstType_0::FloatMisc            0      0.00%     62.58% # Number of instructions issued per FU type, per thread (Count)
system.cpu.statIssuedInstType_0::FloatSqrt            0      0.00%     62.58% # Number of instructions issued per FU type, per thread (Count)
system.cpu.statIssuedInstType_0::SimdAdd         7052      0.01%     62.59% # Number of instructions issued per FU type, per thread (Count)
system.cpu.statIssuedInstType_0::SimdAddAcc            0      0.00%     62.59% # Number of instructions issued per FU type, per thread (Count)
system.cpu.statIssuedInstType_0::SimdAlu       275341      0.30%     62.88% # Number of instructions issued per FU type, per thread (Count)
system.cpu.statIssuedInstType_0::SimdCmp            8      0.00%     62.88% # Number of instructions issued per FU type, per thread (Count)
system.cpu.statIssuedInstType_0::SimdCvt        14711      0.02%     62.90% # Number of instructions issued per FU type, per thread (Count)
system.cpu.statIssuedInstType_0::SimdMisc       406502      0.44%     63.34% # Number of instructions issued per FU type, per thread (Count)
system.cpu.statIssuedInstType_0::SimdMult            0      0.00%     63.34% # Number of instructions issued per FU type, per thread (Count)
system.cpu.statIssuedInstType_0::SimdMultAcc            0      0.00%     63.34% # Number of instructions issued per FU type, per thread (Count)
system.cpu.statIssuedInstType_0::SimdShift         1073      0.00%     63.34% # Number of instructions issued per FU type, per thread (Count)
system.cpu.statIssuedInstType_0::SimdShiftAcc            0      0.00%     63.34% # Number of instructions issued per FU type, per thread (Count)
system.cpu.statIssuedInstType_0::SimdDiv            0      0.00%     63.34% # Number of instructions issued per FU type, per thread (Count)
system.cpu.statIssuedInstType_0::SimdSqrt            0      0.00%     63.34% # Number of instructions issued per FU type, per thread (Count)
system.cpu.statIssuedInstType_0::SimdFloatAdd       524290      0.57%     63.91% # Number of instructions issued per FU type, per thread (Count)
system.cpu.statIssuedInstType_0::SimdFloatAlu            0      0.00%     63.91% # Number of instructions issued per FU type, per thread (Count)
system.cpu.statIssuedInstType_0::SimdFloatCmp            0      0.00%     63.91% # Number of instructions issued per FU type, per thread (Count)
system.cpu.statIssuedInstType_0::SimdFloatCvt       393262      0.43%     64.34% # Number of instructions issued per FU type, per thread (Count)
system.cpu.statIssuedInstType_0::SimdFloatDiv       131079      0.14%     64.48% # Number of instructions issued per FU type, per thread (Count)
system.cpu.statIssuedInstType_0::SimdFloatMisc            0      0.00%     64.48% # Number of instructions issued per FU type, per thread (Count)
system.cpu.statIssuedInstType_0::SimdFloatMult       393216      0.43%     64.91% # Number of instructions issued per FU type, per thread (Count)
system.cpu.statIssuedInstType_0::SimdFloatMultAcc            0      0.00%     64.91% # Number of instructions issued per FU type, per thread (Count)
system.cpu.statIssuedInstType_0::SimdFloatSqrt            0      0.00%     64.91% # Number of instructions issued per FU type, per thread (Count)
system.cpu.statIssuedInstType_0::SimdReduceAdd            0      0.00%     64.91% # Number of instructions issued per FU type, per thread (Count)
system.cpu.statIssuedInstType_0::SimdReduceAlu            0      0.00%     64.91% # Number of instructions issued per FU type, per thread (Count)
system.cpu.statIssuedInstType_0::SimdReduceCmp            0      0.00%     64.91% # Number of instructions issued per FU type, per thread (Count)
system.cpu.statIssuedInstType_0::SimdFloatReduceAdd            0      0.00%     64.91% # Number of instructions issued per FU type, per thread (Count)
system.cpu.statIssuedInstType_0::SimdFloatReduceCmp            0      0.00%     64.91% # Number of instructions issued per FU type, per thread (Count)
system.cpu.statIssuedInstType_0::SimdAes            0      0.00%     64.91% # Number of instructions issued per FU type, per thread (Count)
system.cpu.statIssuedInstType_0::SimdAesMix            0      0.00%     64.91% # Number of instructions issued per FU type, per thread (Count)
system.cpu.statIssuedInstType_0::SimdSha1Hash            0      0.00%     64.91% # Number of instructions issued per FU type, per thread (Count)
system.cpu.statIssuedInstType_0::SimdSha1Hash2            0      0.00%     64.91% # Number of instructions issued per FU type, per thread (Count)
system.cpu.statIssuedInstType_0::SimdSha256Hash            0      0.00%     64.91% # Number of instructions issued per FU type, per thread (Count)
system.cpu.statIssuedInstType_0::SimdSha256Hash2            0      0.00%     64.91% # Number of instructions issued per FU type, per thread (Count)
system.cpu.statIssuedInstType_0::SimdShaSigma2            0      0.00%     64.91% # Number of instructions issued per FU type, per thread (Count)
system.cpu.statIssuedInstType_0::SimdShaSigma3            0      0.00%     64.91% # Number of instructions issued per FU type, per thread (Count)
system.cpu.statIssuedInstType_0::SimdPredAlu            0      0.00%     64.91% # Number of instructions issued per FU type, per thread (Count)
system.cpu.statIssuedInstType_0::MemRead     19043321     20.67%     85.57% # Number of instructions issued per FU type, per thread (Count)
system.cpu.statIssuedInstType_0::MemWrite      9593504     10.41%     95.98% # Number of instructions issued per FU type, per thread (Count)
system.cpu.statIssuedInstType_0::FloatMemRead      2377824      2.58%     98.56% # Number of instructions issued per FU type, per thread (Count)
system.cpu.statIssuedInstType_0::FloatMemWrite      1323091      1.44%    100.00% # Number of instructions issued per FU type, per thread (Count)
system.cpu.statIssuedInstType_0::IprAccess            0      0.00%    100.00% # Number of instructions issued per FU type, per thread (Count)
system.cpu.statIssuedInstType_0::InstPrefetch            0      0.00%    100.00% # Number of instructions issued per FU type, per thread (Count)
system.cpu.statIssuedInstType_0::total       92150968                       # Number of instructions issued per FU type, per thread (Count)
system.cpu.issueRate                         1.796677                       # Inst issue rate ((Count/Cycle))
system.cpu.fuBusy                              571975                       # FU busy when requested (Count)
system.cpu.fuBusyRate                        0.006207                       # FU busy rate (busy events/executed inst) ((Count/Count))
system.cpu.intInstQueueReads                217570165                       # Number of integer instruction queue reads (Count)
system.cpu.intInstQueueWrites                99698246                       # Number of integer instruction queue writes (Count)
system.cpu.intInstQueueWakeupAccesses        82226252                       # Number of integer instruction queue wakeup accesses (Count)
system.cpu.fpInstQueueReads                  18533883                       # Number of floating instruction queue reads (Count)
system.cpu.fpInstQueueWrites                  9301798                       # Number of floating instruction queue writes (Count)
system.cpu.fpInstQueueWakeupAccesses          9263542                       # Number of floating instruction queue wakeup accesses (Count)
system.cpu.vecInstQueueReads                        0                       # Number of vector instruction queue reads (Count)
system.cpu.vecInstQueueWrites                       0                       # Number of vector instruction queue writes (Count)
system.cpu.vecInstQueueWakeupAccesses               0                       # Number of vector instruction queue wakeup accesses (Count)
system.cpu.intAluAccesses                    81861539                       # Number of integer alu accesses (Count)
system.cpu.fpAluAccesses                      9267543                       # Number of floating point alu accesses (Count)
system.cpu.vecAluAccesses                           0                       # Number of vector alu accesses (Count)
system.cpu.idleCycles                               0                       # Number of cycles IEW is idle (Cycle)
system.cpu.squashCycles                        148961                       # Number of cycles IEW is squashing (Cycle)
system.cpu.blockCycles                        2021132                       # Number of cycles IEW is blocking (Cycle)
system.cpu.unblockCycles                        24706                       # Number of cycles IEW is unblocking (Cycle)
system.cpu.dispatchedInsts                   96099603                       # Number of instructions dispatched to IQ (Count)
system.cpu.dispSquashedInsts                      796                       # Number of squashed instructions skipped by dispatch (Count)
system.cpu.dispLoadInsts                     22236609                       # Number of dispatched load instructions (Count)
system.cpu.dispStoreInsts                    11311193                       # Number of dispatched store instructions (Count)
system.cpu.dispNonSpecInsts                    917741                       # Number of dispatched non-speculative instructions (Count)
system.cpu.iqFullEvents                         10844                       # Number of times the IQ has become full, causing a stall (Count)
system.cpu.lsqFullEvents                         9525                       # Number of times the LSQ has become full, causing a stall (Count)
system.cpu.memOrderViolationEvents               3310                       # Number of memory order violations (Count)
system.cpu.predictedTakenIncorrect              72570                       # Number of branches that were predicted taken incorrectly (Count)
system.cpu.predictedNotTakenIncorrect           75425                       # Number of branches that were predicted not taken incorrectly (Count)
system.cpu.branchMispredicts                   147995                       # Number of branch mispredicts detected at execute (Count)
system.cpu.numInsts                          91683231                       # Number of executed instructions (Count)
system.cpu.numLoadInsts                      21299941                       # Number of load instructions executed (Count)
system.cpu.numSquashedInsts                    467732                       # Number of squashed instructions skipped in execute (Count)
system.cpu.numSwp                                   0                       # Number of swp insts executed (Count)
system.cpu.numNop                                   0                       # Number of nop insts executed (Count)
system.cpu.numRefs                           32076439                       # Number of memory reference insts executed (Count)
system.cpu.numBranches                        6891364                       # Number of branches executed (Count)
system.cpu.numStoreInsts                     10776498                       # Number of stores executed (Count)
system.cpu.numRate                           1.787558                       # Inst execution rate ((Count/Cycle))
system.cpu.instsToCommit                     91574568                       # Cumulative count of insts sent to commit (Count)
system.cpu.writebackCount                    91489794                       # Cumulative count of insts written-back (Count)
system.cpu.producerInst                      66177179                       # Number of instructions producing a value (Count)
system.cpu.consumerInst                     108678202                       # Number of instructions consuming a value (Count)
system.cpu.wbRate                            1.783786                       # Insts written-back per cycle ((Count/Cycle))
system.cpu.wbFanout                          0.608928                       # Average fanout of values written-back ((Count/Count))
system.cpu.timesIdled                            1461                       # Number of times that the entire CPU went into an idle state and unscheduled itself (Count)
system.cpu.idleCycles                           61685                       # Total number of cycles that the CPU has spent unscheduled due to idling (Cycle)
system.cpu.committedInsts                    46698355                       # Number of Instructions Simulated (Count)
system.cpu.committedOps                      83201955                       # Number of Ops (including micro ops) Simulated (Count)
system.cpu.cpi                               1.098318                       # CPI: Cycles Per Instruction ((Cycle/Count))
system.cpu.totalCpi                          1.098318                       # CPI: Total CPI of All Threads ((Cycle/Count))
system.cpu.ipc                               0.910483                       # IPC: Instructions Per Cycle ((Count/Cycle))
system.cpu.totalIpc                          0.910483                       # IPC: Total IPC of All Threads ((Count/Cycle))
system.cpu.intRegfileReads                  144618963                       # Number of integer regfile reads (Count)
system.cpu.intRegfileWrites                  64314021                       # Number of integer regfile writes (Count)
system.cpu.fpRegfileReads                     9169917                       # Number of floating regfile reads (Count)
system.cpu.fpRegfileWrites                    7409270                       # Number of floating regfile writes (Count)
system.cpu.ccRegfileReads                    19308950                       # number of cc regfile reads (Count)
system.cpu.ccRegfileWrites                   19679767                       # number of cc regfile writes (Count)
system.cpu.miscRegfileReads                  47011645                       # number of misc regfile reads (Count)
system.cpu.miscRegfileWrites                  1835143                       # number of misc regfile writes (Count)
system.cpu.MemDepUnit__0.insertedLoads       22236609                       # Number of loads inserted to the mem dependence unit. (Count)
system.cpu.MemDepUnit__0.insertedStores      11311193                       # Number of stores inserted to the mem dependence unit. (Count)
system.cpu.MemDepUnit__0.conflictingLoads      7573408                       # Number of conflicting loads. (Count)
system.cpu.MemDepUnit__0.conflictingStores      2206791                       # Number of conflicting stores. (Count)
system.cpu.MemDepUnit__1.insertedLoads              0                       # Number of loads inserted to the mem dependence unit. (Count)
system.cpu.MemDepUnit__1.insertedStores             0                       # Number of stores inserted to the mem dependence unit. (Count)
system.cpu.MemDepUnit__1.conflictingLoads            0                       # Number of conflicting loads. (Count)
system.cpu.MemDepUnit__1.conflictingStores            0                       # Number of conflicting stores. (Count)
system.cpu.MemDepUnit__2.insertedLoads              0                       # Number of loads inserted to the mem dependence unit. (Count)
system.cpu.MemDepUnit__2.insertedStores             0                       # Number of stores inserted to the mem dependence unit. (Count)
system.cpu.MemDepUnit__2.conflictingLoads            0                       # Number of conflicting loads. (Count)
system.cpu.MemDepUnit__2.conflictingStores            0                       # Number of conflicting stores. (Count)
system.cpu.MemDepUnit__3.insertedLoads              0                       # Number of loads inserted to the mem dependence unit. (Count)
system.cpu.MemDepUnit__3.insertedStores             0                       # Number of stores inserted to the mem dependence unit. (Count)
system.cpu.MemDepUnit__3.conflictingLoads            0                       # Number of conflicting loads. (Count)
system.cpu.MemDepUnit__3.conflictingStores            0                       # Number of conflicting stores. (Count)
system.cpu.branchPred.lookups                 7477471                       # Number of BP lookups (Count)
system.cpu.branchPred.condPredicted           2755380                       # Number of conditional branches predicted (Count)
system.cpu.branchPred.condIncorrect            146053                       # Number of conditional branches incorrect (Count)
system.cpu.branchPred.BTBLookups              4253695                       # Number of BTB lookups (Count)
system.cpu.branchPred.BTBHits                 4251539                       # Number of BTB hits (Count)
system.cpu.branchPred.BTBHitRatio            0.999493                       # BTB Hit Ratio (Ratio)
system.cpu.branchPred.RASUsed                 1592218                       # Number of times the RAS was used to get a target. (Count)
[...]
system.mem_ctrl.rdPerTurnAround::stdev       0.345214                       # Reads before turning the bus around for writes (Count)
system.mem_ctrl.rdPerTurnAround::12                 1      0.18%      0.18% # Reads before turning the bus around for writes (Count)
system.mem_ctrl.rdPerTurnAround::13                 1      0.18%      0.36% # Reads before turning the bus around for writes (Count)
system.mem_ctrl.rdPerTurnAround::14                 1      0.18%      0.53% # Reads before turning the bus around for writes (Count)
system.mem_ctrl.rdPerTurnAround::15                 4      0.71%      1.25% # Reads before turning the bus around for writes (Count)
system.mem_ctrl.rdPerTurnAround::16               536     95.37%     96.62% # Reads before turning the bus around for writes (Count)
system.mem_ctrl.rdPerTurnAround::17                18      3.20%     99.82% # Reads before turning the bus around for writes (Count)
system.mem_ctrl.rdPerTurnAround::20                 1      0.18%    100.00% # Reads before turning the bus around for writes (Count)
system.mem_ctrl.rdPerTurnAround::total            562                       # Reads before turning the bus around for writes (Count)
system.mem_ctrl.wrPerTurnAround::samples          562                       # Writes before turning the bus around for reads (Count)
system.mem_ctrl.wrPerTurnAround::mean       16.037367                       # Writes before turning the bus around for reads (Count)
system.mem_ctrl.wrPerTurnAround::gmean      16.035209                       # Writes before turning the bus around for reads (Count)
system.mem_ctrl.wrPerTurnAround::stdev       0.274318                       # Writes before turning the bus around for reads (Count)
system.mem_ctrl.wrPerTurnAround::16               551     98.04%     98.04% # Writes before turning the bus around for reads (Count)
system.mem_ctrl.wrPerTurnAround::17                 2      0.36%     98.40% # Writes before turning the bus around for reads (Count)
system.mem_ctrl.wrPerTurnAround::18                 8      1.42%     99.82% # Writes before turning the bus around for reads (Count)
system.mem_ctrl.wrPerTurnAround::19                 1      0.18%    100.00% # Writes before turning the bus around for reads (Count)
system.mem_ctrl.wrPerTurnAround::total            562                       # Writes before turning the bus around for reads (Count)
system.mem_ctrl.bytesReadWrQ                      768                       # Total number of bytes read from write queue (Byte)
system.mem_ctrl.bytesReadSys                   576832                       # Total read bytes from the system interface side (Byte)
system.mem_ctrl.bytesWrittenSys                576896                       # Total written bytes from the system interface side (Byte)
system.mem_ctrl.avgRdBWSys               761029232.29761875                       # Average system read bandwidth in Byte/s ((Byte/Second))
system.mem_ctrl.avgWrBWSys               761113669.13688409                       # Average system write bandwidth in Byte/s ((Byte/Second))
system.mem_ctrl.totGap                      758011000                       # Total gap between requests (Tick)
system.mem_ctrl.avgGap                       42048.65                       # Average gap between requests ((Tick/Count))
system.mem_ctrl.requestorReadBytes::caches.controllers1       576064                       # Per-requestor bytes read from memory (Byte)
system.mem_ctrl.requestorWriteBytes::caches.controllers1       576832                       # Per-requestor bytes write to memory (Byte)
system.mem_ctrl.requestorReadRate::caches.controllers1 760015990.226435899734                       # Per-requestor bytes read from memory rate ((Byte/Second))
system.mem_ctrl.requestorWriteRate::caches.controllers1 761029232.297618746758                       # Per-requestor bytes write to memory rate ((Byte/Second))
system.mem_ctrl.requestorReadAccesses::caches.controllers1         9013                       # Per-requestor read serviced memory accesses (Count)
system.mem_ctrl.requestorWriteAccesses::caches.controllers1         9014                       # Per-requestor write serviced memory accesses (Count)
system.mem_ctrl.requestorReadTotalLat::caches.controllers1    273259750                       # Per-requestor read total memory access latency (Tick)
system.mem_ctrl.requestorWriteTotalLat::caches.controllers1  18777171250                       # Per-requestor write total memory access latency (Tick)
system.mem_ctrl.requestorReadAvgLat::caches.controllers1     30318.40                       # Per-requestor read average memory access latency ((Tick/Count))
system.mem_ctrl.requestorWriteAvgLat::caches.controllers1   2083111.96                       # Per-requestor write average memory access latency ((Tick/Count))
system.mem_ctrl.dram.bytesRead::caches.controllers1       576832                       # Number of bytes read from this memory (Byte)
system.mem_ctrl.dram.bytesRead::total          576832                       # Number of bytes read from this memory (Byte)
system.mem_ctrl.dram.bytesWritten::caches.controllers1       576896                       # Number of bytes written to this memory (Byte)
system.mem_ctrl.dram.bytesWritten::total       576896                       # Number of bytes written to this memory (Byte)
system.mem_ctrl.dram.numReads::caches.controllers1         9013                       # Number of read requests responded to by this memory (Count)
system.mem_ctrl.dram.numReads::total             9013                       # Number of read requests responded to by this memory (Count)
system.mem_ctrl.dram.numWrites::caches.controllers1         9014                       # Number of write requests responded to by this memory (Count)
system.mem_ctrl.dram.numWrites::total            9014                       # Number of write requests responded to by this memory (Count)
system.mem_ctrl.dram.bwRead::caches.controllers1    761029232                       # Total read bandwidth from this memory ((Byte/Second))
system.mem_ctrl.dram.bwRead::total          761029232                       # Total read bandwidth from this memory ((Byte/Second))
system.mem_ctrl.dram.bwWrite::caches.controllers1    761113669                       # Write bandwidth from this memory ((Byte/Second))
system.mem_ctrl.dram.bwWrite::total         761113669                       # Write bandwidth from this memory ((Byte/Second))
system.mem_ctrl.dram.bwTotal::caches.controllers1   1522142901                       # Total bandwidth to/from this memory ((Byte/Second))
system.mem_ctrl.dram.bwTotal::total        1522142901                       # Total bandwidth to/from this memory ((Byte/Second))
system.mem_ctrl.dram.readBursts                  9001                       # Number of DRAM read bursts (Count)
system.mem_ctrl.dram.writeBursts                 9013                       # Number of DRAM write bursts (Count)
system.mem_ctrl.dram.perBankRdBursts::0           518                       # Per bank write bursts (Count)
system.mem_ctrl.dram.perBankRdBursts::1           545                       # Per bank write bursts (Count)
system.mem_ctrl.dram.perBankRdBursts::2           585                       # Per bank write bursts (Count)
system.mem_ctrl.dram.perBankRdBursts::3           591                       # Per bank write bursts (Count)
system.mem_ctrl.dram.perBankRdBursts::4           572                       # Per bank write bursts (Count)
system.mem_ctrl.dram.perBankRdBursts::5           548                       # Per bank write bursts (Count)
system.mem_ctrl.dram.perBankRdBursts::6           544                       # Per bank write bursts (Count)
system.mem_ctrl.dram.perBankRdBursts::7           611                       # Per bank write bursts (Count)
system.mem_ctrl.dram.perBankRdBursts::8           520                       # Per bank write bursts (Count)
system.mem_ctrl.dram.perBankRdBursts::9           573                       # Per bank write bursts (Count)
system.mem_ctrl.dram.perBankRdBursts::10          554                       # Per bank write bursts (Count)
system.mem_ctrl.dram.perBankRdBursts::11          454                       # Per bank write bursts (Count)
system.mem_ctrl.dram.perBankRdBursts::12          577                       # Per bank write bursts (Count)
system.mem_ctrl.dram.perBankRdBursts::13          641                       # Per bank write bursts (Count)
system.mem_ctrl.dram.perBankRdBursts::14          640                       # Per bank write bursts (Count)
system.mem_ctrl.dram.perBankRdBursts::15          528                       # Per bank write bursts (Count)
system.mem_ctrl.dram.perBankWrBursts::0           514                       # Per bank write bursts (Count)
system.mem_ctrl.dram.perBankWrBursts::1           521                       # Per bank write bursts (Count)
system.mem_ctrl.dram.perBankWrBursts::2           529                       # Per bank write bursts (Count)
system.mem_ctrl.dram.perBankWrBursts::3           561                       # Per bank write bursts (Count)
system.mem_ctrl.dram.perBankWrBursts::4           532                       # Per bank write bursts (Count)
system.mem_ctrl.dram.perBankWrBursts::5           531                       # Per bank write bursts (Count)
system.mem_ctrl.dram.perBankWrBursts::6           534                       # Per bank write bursts (Count)
system.mem_ctrl.dram.perBankWrBursts::7           558                       # Per bank write bursts (Count)
system.mem_ctrl.dram.perBankWrBursts::8           517                       # Per bank write bursts (Count)
system.mem_ctrl.dram.perBankWrBursts::9           545                       # Per bank write bursts (Count)
system.mem_ctrl.dram.perBankWrBursts::10          530                       # Per bank write bursts (Count)
system.mem_ctrl.dram.perBankWrBursts::11          529                       # Per bank write bursts (Count)
system.mem_ctrl.dram.perBankWrBursts::12          782                       # Per bank write bursts (Count)
system.mem_ctrl.dram.perBankWrBursts::13          662                       # Per bank write bursts (Count)
system.mem_ctrl.dram.perBankWrBursts::14          650                       # Per bank write bursts (Count)
system.mem_ctrl.dram.perBankWrBursts::15          518                       # Per bank write bursts (Count)
system.mem_ctrl.dram.totQLat                104491000                       # Total ticks spent queuing (Tick)
system.mem_ctrl.dram.totBusLat               45005000                       # Total ticks spent in databus transfers (Tick)
system.mem_ctrl.dram.totMemAccLat           273259750                       # Total ticks spent from burst creation until serviced by the DRAM (Tick)
system.mem_ctrl.dram.avgQLat                 11608.82                       # Average queueing delay per DRAM burst ((Tick/Count))
system.mem_ctrl.dram.avgBusLat                5000.00                       # Average bus latency per DRAM burst ((Tick/Count))
system.mem_ctrl.dram.avgMemAccLat            30358.82                       # Average memory access latency per DRAM burst ((Tick/Count))
system.mem_ctrl.dram.readRowHits                 8133                       # Number of row buffer hits during reads (Count)
system.mem_ctrl.dram.writeRowHits                8073                       # Number of row buffer hits during writes (Count)
system.mem_ctrl.dram.readRowHitRate             90.36                       # Row buffer hit rate for reads (Ratio)
system.mem_ctrl.dram.writeRowHitRate            89.57                       # Row buffer hit rate for writes (Ratio)
system.mem_ctrl.dram.bytesPerActivate::samples         1799                       # Bytes accessed per row activation (Byte)
system.mem_ctrl.dram.bytesPerActivate::mean   639.893274                       # Bytes accessed per row activation (Byte)
system.mem_ctrl.dram.bytesPerActivate::gmean   422.663871                       # Bytes accessed per row activation (Byte)
system.mem_ctrl.dram.bytesPerActivate::stdev   414.841532                       # Bytes accessed per row activation (Byte)
system.mem_ctrl.dram.bytesPerActivate::0-127          307     17.07%     17.07% # Bytes accessed per row activation (Byte)
system.mem_ctrl.dram.bytesPerActivate::128-255          234     13.01%     30.07% # Bytes accessed per row activation (Byte)
system.mem_ctrl.dram.bytesPerActivate::256-383          101      5.61%     35.69% # Bytes accessed per row activation (Byte)
system.mem_ctrl.dram.bytesPerActivate::384-511           79      4.39%     40.08% # Bytes accessed per row activation (Byte)
system.mem_ctrl.dram.bytesPerActivate::512-639           87      4.84%     44.91% # Bytes accessed per row activation (Byte)
system.mem_ctrl.dram.bytesPerActivate::640-767           43      2.39%     47.30% # Bytes accessed per row activation (Byte)
system.mem_ctrl.dram.bytesPerActivate::768-895           38      2.11%     49.42% # Bytes accessed per row activation (Byte)
system.mem_ctrl.dram.bytesPerActivate::896-1023           30      1.67%     51.08% # Bytes accessed per row activation (Byte)
system.mem_ctrl.dram.bytesPerActivate::1024-1151          880     48.92%    100.00% # Bytes accessed per row activation (Byte)
system.mem_ctrl.dram.bytesPerActivate::total         1799                       # Bytes accessed per row activation (Byte)
system.mem_ctrl.dram.bytesRead                 576064                       # Total number of bytes read from DRAM (Byte)
system.mem_ctrl.dram.bytesWritten              576832                       # Total number of bytes written to DRAM (Byte)
system.mem_ctrl.dram.avgRdBW               760.015990                       # Average DRAM read bandwidth in MiBytes/s ((Byte/Second))
system.mem_ctrl.dram.avgWrBW               761.029232                       # Average DRAM write bandwidth in MiBytes/s ((Byte/Second))
system.mem_ctrl.dram.peakBW                  12800.00                       # Theoretical peak bandwidth in MiByte/s ((Byte/Second))
system.mem_ctrl.dram.busUtil                    11.88                       # Data bus utilization in percentage (Ratio)
system.mem_ctrl.dram.busUtilRead                 5.94                       # Data bus utilization in percentage for reads (Ratio)
system.mem_ctrl.dram.busUtilWrite                5.95                       # Data bus utilization in percentage for writes (Ratio)
system.mem_ctrl.dram.pageHitRate                89.96                       # Row buffer hit rate, read and write combined (Ratio)
system.mem_ctrl.dram.power_state.pwrStateResidencyTicks::UNDEFINED    757963000                       # Cumulative time (in ticks) in various power states (Tick)
system.mem_ctrl.dram.rank0.actEnergy          6326040                       # Energy for activate commands per rank (pJ) (Joule)
system.mem_ctrl.dram.rank0.preEnergy          3347190                       # Energy for precharge commands per rank (pJ) (Joule)
system.mem_ctrl.dram.rank0.readEnergy        32229960                       # Energy for read commands per rank (pJ) (Joule)
system.mem_ctrl.dram.rank0.writeEnergy       22341600                       # Energy for write commands per rank (pJ) (Joule)
system.mem_ctrl.dram.rank0.refreshEnergy 59620080.000000                       # Energy for refresh commands per rank (pJ) (Joule)
system.mem_ctrl.dram.rank0.actBackEnergy    259683450                       # Energy for active background per rank (pJ) (Joule)
system.mem_ctrl.dram.rank0.preBackEnergy     72377280                       # Energy for precharge background per rank (pJ) (Joule)
system.mem_ctrl.dram.rank0.actPowerDownEnergy            0                       # Energy for active power-down per rank (pJ) (Joule)
system.mem_ctrl.dram.rank0.prePowerDownEnergy            0                       # Energy for precharge power-down per rank (pJ) (Joule)
system.mem_ctrl.dram.rank0.selfRefreshEnergy            0                       # Energy for self refresh per rank (pJ) (Joule)
system.mem_ctrl.dram.rank0.totalEnergy      455925600                       # Total energy per rank (pJ) (Joule)
system.mem_ctrl.dram.rank0.averagePower    601.514322                       # Core power per rank (mW) (Watt)
system.mem_ctrl.dram.rank0.totalIdleTime            0                       # Total Idle time Per DRAM Rank (Tick)
system.mem_ctrl.dram.rank0.pwrStateTime::IDLE    184107250                       # Time in different power states (Tick)
system.mem_ctrl.dram.rank0.pwrStateTime::REF     25220000                       # Time in different power states (Tick)
system.mem_ctrl.dram.rank0.pwrStateTime::SREF            0                       # Time in different power states (Tick)
system.mem_ctrl.dram.rank0.pwrStateTime::PRE_PDN            0                       # Time in different power states (Tick)
system.mem_ctrl.dram.rank0.pwrStateTime::ACT    548635750                       # Time in different power states (Tick)
system.mem_ctrl.dram.rank0.pwrStateTime::ACT_PDN            0                       # Time in different power states (Tick)
system.mem_ctrl.dram.rank1.actEnergy          6583080                       # Energy for activate commands per rank (pJ) (Joule)
system.mem_ctrl.dram.rank1.preEnergy          3480015                       # Energy for precharge commands per rank (pJ) (Joule)
system.mem_ctrl.dram.rank1.readEnergy        32037180                       # Energy for read commands per rank (pJ) (Joule)
system.mem_ctrl.dram.rank1.writeEnergy       24706260                       # Energy for write commands per rank (pJ) (Joule)
system.mem_ctrl.dram.rank1.refreshEnergy 59620080.000000                       # Energy for refresh commands per rank (pJ) (Joule)
system.mem_ctrl.dram.rank1.actBackEnergy    261144930                       # Energy for active background per rank (pJ) (Joule)
system.mem_ctrl.dram.rank1.preBackEnergy     71146560                       # Energy for precharge background per rank (pJ) (Joule)
system.mem_ctrl.dram.rank1.actPowerDownEnergy            0                       # Energy for active power-down per rank (pJ) (Joule)
system.mem_ctrl.dram.rank1.prePowerDownEnergy            0                       # Energy for precharge power-down per rank (pJ) (Joule)
system.mem_ctrl.dram.rank1.selfRefreshEnergy            0                       # Energy for self refresh per rank (pJ) (Joule)
system.mem_ctrl.dram.rank1.totalEnergy      458718105                       # Total energy per rank (pJ) (Joule)
system.mem_ctrl.dram.rank1.averagePower    605.198545                       # Core power per rank (mW) (Watt)
system.mem_ctrl.dram.rank1.totalIdleTime            0                       # Total Idle time Per DRAM Rank (Tick)
system.mem_ctrl.dram.rank1.pwrStateTime::IDLE    180744500                       # Time in different power states (Tick)
system.mem_ctrl.dram.rank1.pwrStateTime::REF     25220000                       # Time in different power states (Tick)
system.mem_ctrl.dram.rank1.pwrStateTime::SREF            0                       # Time in different power states (Tick)
system.mem_ctrl.dram.rank1.pwrStateTime::PRE_PDN            0                       # Time in different power states (Tick)
system.mem_ctrl.dram.rank1.pwrStateTime::ACT    551998500                       # Time in different power states (Tick)
system.mem_ctrl.dram.rank1.pwrStateTime::ACT_PDN            0                       # Time in different power states (Tick)
system.mem_ctrl.power_state.pwrStateResidencyTicks::UNDEFINED    757963000                       # Cumulative time (in ticks) in various power states (Tick)
system.workload.inst.arm                            0                       # number of arm instructions executed (Count)
system.workload.inst.quiesce                        0                       # number of quiesce instructions executed (Count)

---------- End Simulation Statistics   ----------
