
---------- Begin Simulation Statistics ----------
simSeconds                                   0.000221                       # Number of seconds simulated (Second)
simTicks                                    220985000                       # Number of ticks simulated (Tick)
finalTick                                   220985000                       # Number of ticks from beginning of simulation (restored from checkpoints and never reset) (Tick)
simFreq                                  1000000000000                       # The number of ticks per simulated second ((Tick/Second))
hostSeconds                                      0.80                       # Real time elapsed on the host (Second)
hostTickRate                                275057309                       # The number of ticks simulated per host second (ticks/s) ((Tick/Second))
hostMemory                                     750160                       # Number of bytes of host memory used (Byte)
simInsts                                       123064                       # Number of instructions simulated (Count)
simOps                                         227381                       # Number of ops (including micro ops) simulated (Count)
hostInstRate                                   153158                       # Simulator instruction rate (inst/s) ((Count/Second))
hostOpRate                                     282983                       # Simulator op (including micro ops) rate (op/s) ((Count/Second))
system.caches.delayHistogram::bucket_size            2                       # delay histogram for all message (Unspecified)
system.caches.delayHistogram::max_bucket           19                       # delay histogram for all message (Unspecified)
system.caches.delayHistogram::samples            6592                       # delay histogram for all message (Unspecified)
system.caches.delayHistogram::mean           0.073119                       # delay histogram for all message (Unspecified)
system.caches.delayHistogram::stdev          0.663864                       # delay histogram for all message (Unspecified)
system.caches.delayHistogram             |        6495     98.53%     98.53% |          23      0.35%     98.88% |          27      0.41%     99.29% |          28      0.42%     99.71% |          18      0.27%     99.98% |           0      0.00%     99.98% |           0      0.00%     99.98% |           0      0.00%     99.98% |           1      0.02%    100.00% |           0      0.00%    100.00% # delay histogram for all message (Unspecified)
system.caches.delayHistogram::total              6592                       # delay histogram for all message (Unspecified)
system.caches.m_outstandReqHistSeqr::bucket_size            2                       (Unspecified)
system.caches.m_outstandReqHistSeqr::max_bucket           19                       (Unspecified)
system.caches.m_outstandReqHistSeqr::samples        69614                       (Unspecified)
system.caches.m_outstandReqHistSeqr::mean     2.726621                       (Unspecified)
system.caches.m_outstandReqHistSeqr::gmean     1.963398                       (Unspecified)
system.caches.m_outstandReqHistSeqr::stdev     2.930372                       (Unspecified)
system.caches.m_outstandReqHistSeqr      |       29299     42.09%     42.09% |       27620     39.68%     81.76% |        6191      8.89%     90.66% |        1568      2.25%     92.91% |        1015      1.46%     94.37% |        1294      1.86%     96.23% |         987      1.42%     97.64% |         798      1.15%     98.79% |         842      1.21%    100.00% |           0      0.00%    100.00% (Unspecified)
system.caches.m_outstandReqHistSeqr::total        69614                       (Unspecified)
system.caches.m_latencyHistSeqr::bucket_size           64                       (Unspecified)
system.caches.m_latencyHistSeqr::max_bucket          639                       (Unspecified)
system.caches.m_latencyHistSeqr::samples        69705                       (Unspecified)
system.caches.m_latencyHistSeqr::mean        4.832709                       (Unspecified)
system.caches.m_latencyHistSeqr::gmean       1.242824                       (Unspecified)
system.caches.m_latencyHistSeqr::stdev      19.365812                       (Unspecified)
system.caches.m_latencyHistSeqr          |       68400     98.13%     98.13% |         933      1.34%     99.47% |         289      0.41%     99.88% |          26      0.04%     99.92% |          28      0.04%     99.96% |          19      0.03%     99.99% |           9      0.01%    100.00% |           1      0.00%    100.00% |           0      0.00%    100.00% |           0      0.00%    100.00% (Unspecified)
system.caches.m_latencyHistSeqr::total          69705                       (Unspecified)
system.caches.m_hitLatencyHistSeqr::bucket_size           16                       (Unspecified)
system.caches.m_hitLatencyHistSeqr::max_bucket          159                       (Unspecified)
system.caches.m_hitLatencyHistSeqr::samples        66153                       (Unspecified)
system.caches.m_hitLatencyHistSeqr::mean     1.011489                       (Unspecified)
system.caches.m_hitLatencyHistSeqr::gmean     1.001643                       (Unspecified)
system.caches.m_hitLatencyHistSeqr::stdev     0.854792                       (Unspecified)
system.caches.m_hitLatencyHistSeqr       |       66140     99.98%     99.98% |           4      0.01%     99.99% |           3      0.00%     99.99% |           2      0.00%     99.99% |           2      0.00%    100.00% |           1      0.00%    100.00% |           0      0.00%    100.00% |           0      0.00%    100.00% |           1      0.00%    100.00% |           0      0.00%    100.00% (Unspecified)
system.caches.m_hitLatencyHistSeqr::total        66153                       (Unspecified)
system.caches.m_missLatencyHistSeqr::bucket_size           64                       (Unspecified)
system.caches.m_missLatencyHistSeqr::max_bucket          639                       (Unspecified)
system.caches.m_missLatencyHistSeqr::samples         3552                       (Unspecified)
system.caches.m_missLatencyHistSeqr::mean    75.999718                       (Unspecified)
system.caches.m_missLatencyHistSeqr::gmean    69.091735                       (Unspecified)
system.caches.m_missLatencyHistSeqr::stdev    44.831940                       (Unspecified)
system.caches.m_missLatencyHistSeqr      |        2251     63.37%     63.37% |         930     26.18%     89.56% |         288      8.11%     97.66% |          26      0.73%     98.40% |          28      0.79%     99.18% |          19      0.53%     99.72% |           9      0.25%     99.97% |           1      0.03%    100.00% |           0      0.00%    100.00% |           0      0.00%    100.00% (Unspecified)
system.caches.m_missLatencyHistSeqr::total         3552                       (Unspecified)
system.caches.delayVCHist.vnet_1::bucket_size            1                       # delay histogram for vnet_1 (Unspecified)
system.caches.delayVCHist.vnet_1::max_bucket            9                       # delay histogram for vnet_1 (Unspecified)
system.caches.delayVCHist.vnet_1::samples         3552                       # delay histogram for vnet_1 (Unspecified)
system.caches.delayVCHist.vnet_1::mean       0.015203                       # delay histogram for vnet_1 (Unspecified)
system.caches.delayVCHist.vnet_1::stdev      0.290262                       # delay histogram for vnet_1 (Unspecified)
system.caches.delayVCHist.vnet_1         |        3541     99.69%     99.69% |           0      0.00%     99.69% |           1      0.03%     99.72% |           0      0.00%     99.72% |           6      0.17%     99.89% |           0      0.00%     99.89% |           2      0.06%     99.94% |           0      0.00%     99.94% |           2      0.06%    100.00% |           0      0.00%    100.00% # delay histogram for vnet_1 (Unspecified)
system.caches.delayVCHist.vnet_1::total          3552                       # delay histogram for vnet_1 (Unspecified)
system.caches.delayVCHist.vnet_2::bucket_size            2                       # delay histogram for vnet_2 (Unspecified)
system.caches.delayVCHist.vnet_2::max_bucket           19                       # delay histogram for vnet_2 (Unspecified)
system.caches.delayVCHist.vnet_2::samples         3040                       # delay histogram for vnet_2 (Unspecified)
system.caches.delayVCHist.vnet_2::mean       0.140789                       # delay histogram for vnet_2 (Unspecified)
system.caches.delayVCHist.vnet_2::stdev      0.921346                       # delay histogram for vnet_2 (Unspecified)
system.caches.delayVCHist.vnet_2         |        2954     97.17%     97.17% |          22      0.72%     97.89% |          21      0.69%     98.59% |          26      0.86%     99.44% |          16      0.53%     99.97% |           0      0.00%     99.97% |           0      0.00%     99.97% |           0      0.00%     99.97% |           1      0.03%    100.00% |           0      0.00%    100.00% # delay histogram for vnet_2 (Unspecified)
system.caches.delayVCHist.vnet_2::total          3040                       # delay histogram for vnet_2 (Unspecified)
system.caches.L1Cache_Controller.Load           30077      0.00%      0.00% (Unspecified)
system.caches.L1Cache_Controller.Ifetch         24758      0.00%      0.00% (Unspecified)
system.caches.L1Cache_Controller.Store          14871      0.00%      0.00% (Unspecified)
system.caches.L1Cache_Controller.Data            3552      0.00%      0.00% (Unspecified)
system.caches.L1Cache_Controller.Replacement         3041      0.00%      0.00% (Unspecified)
system.caches.L1Cache_Controller.Writeback_Ack         3040      0.00%      0.00% (Unspecified)
system.caches.L1Cache_Controller.I.Load          1783      0.00%      0.00% (Unspecified)
system.caches.L1Cache_Controller.I.Ifetch         1199      0.00%      0.00% (Unspecified)
system.caches.L1Cache_Controller.I.Store          571      0.00%      0.00% (Unspecified)
system.caches.L1Cache_Controller.M.Load         28294      0.00%      0.00% (Unspecified)
system.caches.L1Cache_Controller.M.Ifetch        23559      0.00%      0.00% (Unspecified)
system.caches.L1Cache_Controller.M.Store        14300      0.00%      0.00% (Unspecified)
system.caches.L1Cache_Controller.M.Replacement         3041      0.00%      0.00% (Unspecified)
system.caches.L1Cache_Controller.MI.Writeback_Ack         3040      0.00%      0.00% (Unspecified)
system.caches.L1Cache_Controller.IS.Data         2981      0.00%      0.00% (Unspecified)
system.caches.L1Cache_Controller.IM.Data          571      0.00%      0.00% (Unspecified)
system.caches.Directory_Controller.GETX          3552      0.00%      0.00% (Unspecified)
system.caches.Directory_Controller.PUTX          3040      0.00%      0.00% (Unspecified)
system.caches.Directory_Controller.Memory_Data         3552      0.00%      0.00% (Unspecified)
system.caches.Directory_Controller.Memory_Ack         3040      0.00%      0.00% (Unspecified)
system.caches.Directory_Controller.I.GETX         3552      0.00%      0.00% (Unspecified)
system.caches.Directory_Controller.M.PUTX         3040      0.00%      0.00% (Unspecified)
system.caches.Directory_Controller.IM.Memory_Data         3552      0.00%      0.00% (Unspecified)
system.caches.Directory_Controller.MI.Memory_Ack         3040      0.00%      0.00% (Unspecified)
system.caches.MachineType.Directory.miss_mach_latency_hist_seqr::bucket_size           64                       (Unspecified)
system.caches.MachineType.Directory.miss_mach_latency_hist_seqr::max_bucket          639                       (Unspecified)
system.caches.MachineType.Directory.miss_mach_latency_hist_seqr::samples         3552                       (Unspecified)
system.caches.MachineType.Directory.miss_mach_latency_hist_seqr::mean    75.999718                       (Unspecified)
system.caches.MachineType.Directory.miss_mach_latency_hist_seqr::gmean    69.091735                       (Unspecified)
system.caches.MachineType.Directory.miss_mach_latency_hist_seqr::stdev    44.831940                       (Unspecified)
system.caches.MachineType.Directory.miss_mach_latency_hist_seqr |        2251     63.37%     63.37% |         930     26.18%     89.56% |         288      8.11%     97.66% |          26      0.73%     98.40% |          28      0.79%     99.18% |          19      0.53%     99.72% |           9      0.25%     99.97% |           1      0.03%    100.00% |           0      0.00%    100.00% |           0      0.00%    100.00% (Unspecified)
system.caches.MachineType.Directory.miss_mach_latency_hist_seqr::total         3552                       (Unspecified)
system.caches.MachineType.Directory.miss_latency_hist_seqr.issue_to_initial_request::bucket_size            1                       (Unspecified)
system.caches.MachineType.Directory.miss_latency_hist_seqr.issue_to_initial_request::max_bucket            9                       (Unspecified)
system.caches.MachineType.Directory.miss_latency_hist_seqr.issue_to_initial_request::samples            1                       (Unspecified)
system.caches.MachineType.Directory.miss_latency_hist_seqr.issue_to_initial_request::stdev          nan                       (Unspecified)
system.caches.MachineType.Directory.miss_latency_hist_seqr.issue_to_initial_request |           1    100.00%    100.00% |           0      0.00%    100.00% |           0      0.00%    100.00% |           0      0.00%    100.00% |           0      0.00%    100.00% |           0      0.00%    100.00% |           0      0.00%    100.00% |           0      0.00%    100.00% |           0      0.00%    100.00% |           0      0.00%    100.00% (Unspecified)
system.caches.MachineType.Directory.miss_latency_hist_seqr.issue_to_initial_request::total            1                       (Unspecified)
system.caches.MachineType.Directory.miss_latency_hist_seqr.initial_to_forward::bucket_size            1                       (Unspecified)
system.caches.MachineType.Directory.miss_latency_hist_seqr.initial_to_forward::max_bucket            9                       (Unspecified)
system.caches.MachineType.Directory.miss_latency_hist_seqr.initial_to_forward::samples            1                       (Unspecified)
system.caches.MachineType.Directory.miss_latency_hist_seqr.initial_to_forward::stdev          nan                       (Unspecified)
system.caches.MachineType.Directory.miss_latency_hist_seqr.initial_to_forward |           1    100.00%    100.00% |           0      0.00%    100.00% |           0      0.00%    100.00% |           0      0.00%    100.00% |           0      0.00%    100.00% |           0      0.00%    100.00% |           0      0.00%    100.00% |           0      0.00%    100.00% |           0      0.00%    100.00% |           0      0.00%    100.00% (Unspecified)
system.caches.MachineType.Directory.miss_latency_hist_seqr.initial_to_forward::total            1                       (Unspecified)
system.caches.MachineType.Directory.miss_latency_hist_seqr.forward_to_first_response::bucket_size            1                       (Unspecified)
system.caches.MachineType.Directory.miss_latency_hist_seqr.forward_to_first_response::max_bucket            9                       (Unspecified)
system.caches.MachineType.Directory.miss_latency_hist_seqr.forward_to_first_response::samples            1                       (Unspecified)
system.caches.MachineType.Directory.miss_latency_hist_seqr.forward_to_first_response::stdev          nan                       (Unspecified)
system.caches.MachineType.Directory.miss_latency_hist_seqr.forward_to_first_response |           1    100.00%    100.00% |           0      0.00%    100.00% |           0      0.00%    100.00% |           0      0.00%    100.00% |           0      0.00%    100.00% |           0      0.00%    100.00% |           0      0.00%    100.00% |           0      0.00%    100.00% |           0      0.00%    100.00% |           0      0.00%    100.00% (Unspecified)
system.caches.MachineType.Directory.miss_latency_hist_seqr.forward_to_first_response::total            1                       (Unspecified)
system.caches.MachineType.Directory.miss_latency_hist_seqr.first_response_to_completion::bucket_size            8                       (Unspecified)
system.caches.MachineType.Directory.miss_latency_hist_seqr.first_response_to_completion::max_bucket           79                       (Unspecified)
system.caches.MachineType.Directory.miss_latency_hist_seqr.first_response_to_completion::samples            1                       (Unspecified)
system.caches.MachineType.Directory.miss_latency_hist_seqr.first_response_to_completion::mean           73                       (Unspecified)
system.caches.MachineType.Directory.miss_latency_hist_seqr.first_response_to_completion::gmean    73.000000                       (Unspecified)
system.caches.MachineType.Directory.miss_latency_hist_seqr.first_response_to_completion::stdev          nan                       (Unspecified)
system.caches.MachineType.Directory.miss_latency_hist_seqr.first_response_to_completion |           0      0.00%      0.00% |           0      0.00%      0.00% |           0      0.00%      0.00% |           0      0.00%      0.00% |           0      0.00%      0.00% |           0      0.00%      0.00% |           0      0.00%      0.00% |           0      0.00%      0.00% |           0      0.00%      0.00% |           1    100.00%    100.00% (Unspecified)
system.caches.MachineType.Directory.miss_latency_hist_seqr.first_response_to_completion::total            1                       (Unspecified)
system.caches.MachineType.Directory.incomplete_times_seqr         3551                       (Unspecified)
system.caches.RequestType.LD.latency_hist_seqr::bucket_size           64                       (Unspecified)
system.caches.RequestType.LD.latency_hist_seqr::max_bucket          639                       (Unspecified)
system.caches.RequestType.LD.latency_hist_seqr::samples        30077                       (Unspecified)
system.caches.RequestType.LD.latency_hist_seqr::mean     5.692024                       (Unspecified)
system.caches.RequestType.LD.latency_hist_seqr::gmean     1.288978                       (Unspecified)
system.caches.RequestType.LD.latency_hist_seqr::stdev    22.099273                       (Unspecified)
system.caches.RequestType.LD.latency_hist_seqr |       29306     97.44%     97.44% |         545      1.81%     99.25% |         174      0.58%     99.83% |          18      0.06%     99.89% |          15      0.05%     99.94% |          13      0.04%     99.98% |           6      0.02%    100.00% |           0      0.00%    100.00% |           0      0.00%    100.00% |           0      0.00%    100.00% (Unspecified)
system.caches.RequestType.LD.latency_hist_seqr::total        30077                       (Unspecified)
system.caches.RequestType.LD.hit_latency_hist_seqr::bucket_size            4                       (Unspecified)
system.caches.RequestType.LD.hit_latency_hist_seqr::max_bucket           39                       (Unspecified)
system.caches.RequestType.LD.hit_latency_hist_seqr::samples        28294                       (Unspecified)
system.caches.RequestType.LD.hit_latency_hist_seqr::mean     1.000884                       (Unspecified)
system.caches.RequestType.LD.hit_latency_hist_seqr::gmean     1.000166                       (Unspecified)
system.caches.RequestType.LD.hit_latency_hist_seqr::stdev     0.127089                       (Unspecified)
system.caches.RequestType.LD.hit_latency_hist_seqr |       28292     99.99%     99.99% |           1      0.00%    100.00% |           0      0.00%    100.00% |           0      0.00%    100.00% |           0      0.00%    100.00% |           1      0.00%    100.00% |           0      0.00%    100.00% |           0      0.00%    100.00% |           0      0.00%    100.00% |           0      0.00%    100.00% (Unspecified)
system.caches.RequestType.LD.hit_latency_hist_seqr::total        28294                       (Unspecified)
system.caches.RequestType.LD.miss_latency_hist_seqr::bucket_size           64                       (Unspecified)
system.caches.RequestType.LD.miss_latency_hist_seqr::max_bucket          639                       (Unspecified)
system.caches.RequestType.LD.miss_latency_hist_seqr::samples         1783                       (Unspecified)
system.caches.RequestType.LD.miss_latency_hist_seqr::mean    80.134605                       (Unspecified)
system.caches.RequestType.LD.miss_latency_hist_seqr::gmean    72.203470                       (Unspecified)
system.caches.RequestType.LD.miss_latency_hist_seqr::stdev    48.458202                       (Unspecified)
system.caches.RequestType.LD.miss_latency_hist_seqr |        1012     56.76%     56.76% |         545     30.57%     87.32% |         174      9.76%     97.08% |          18      1.01%     98.09% |          15      0.84%     98.93% |          13      0.73%     99.66% |           6      0.34%    100.00% |           0      0.00%    100.00% |           0      0.00%    100.00% |           0      0.00%    100.00% (Unspecified)
system.caches.RequestType.LD.miss_latency_hist_seqr::total         1783                       (Unspecified)
system.caches.RequestType.ST.latency_hist_seqr::bucket_size           64                       (Unspecified)
system.caches.RequestType.ST.latency_hist_seqr::max_bucket          639                       (Unspecified)
system.caches.RequestType.ST.latency_hist_seqr::samples        14446                       (Unspecified)
system.caches.RequestType.ST.latency_hist_seqr::mean     3.813997                       (Unspecified)
system.caches.RequestType.ST.latency_hist_seqr::gmean     1.181385                       (Unspecified)
system.caches.RequestType.ST.latency_hist_seqr::stdev    16.330803                       (Unspecified)
system.caches.RequestType.ST.latency_hist_seqr |       14282     98.86%     98.86% |         107      0.74%     99.61% |          48      0.33%     99.94% |           1      0.01%     99.94% |           4      0.03%     99.97% |           3      0.02%     99.99% |           0      0.00%     99.99% |           1      0.01%    100.00% |           0      0.00%    100.00% |           0      0.00%    100.00% (Unspecified)
system.caches.RequestType.ST.latency_hist_seqr::total        14446                       (Unspecified)
system.caches.RequestType.ST.hit_latency_hist_seqr::bucket_size            8                       (Unspecified)
system.caches.RequestType.ST.hit_latency_hist_seqr::max_bucket           79                       (Unspecified)
system.caches.RequestType.ST.hit_latency_hist_seqr::samples        13895                       (Unspecified)
system.caches.RequestType.ST.hit_latency_hist_seqr::mean     1.029867                       (Unspecified)
system.caches.RequestType.ST.hit_latency_hist_seqr::gmean     1.006080                       (Unspecified)
system.caches.RequestType.ST.hit_latency_hist_seqr::stdev     1.128003                       (Unspecified)
system.caches.RequestType.ST.hit_latency_hist_seqr |       13888     99.95%     99.95% |           0      0.00%     99.95% |           1      0.01%     99.96% |           1      0.01%     99.96% |           0      0.00%     99.96% |           1      0.01%     99.97% |           1      0.01%     99.98% |           1      0.01%     99.99% |           2      0.01%    100.00% |           0      0.00%    100.00% (Unspecified)
system.caches.RequestType.ST.hit_latency_hist_seqr::total        13895                       (Unspecified)
system.caches.RequestType.ST.miss_latency_hist_seqr::bucket_size           64                       (Unspecified)
system.caches.RequestType.ST.miss_latency_hist_seqr::max_bucket          639                       (Unspecified)
system.caches.RequestType.ST.miss_latency_hist_seqr::samples          551                       (Unspecified)
system.caches.RequestType.ST.miss_latency_hist_seqr::mean    74.023593                       (Unspecified)
system.caches.RequestType.ST.miss_latency_hist_seqr::gmean    67.851011                       (Unspecified)
system.caches.RequestType.ST.miss_latency_hist_seqr::stdev    42.872638                       (Unspecified)
system.caches.RequestType.ST.miss_latency_hist_seqr |         389     70.60%     70.60% |         105     19.06%     89.66% |          48      8.71%     98.37% |           1      0.18%     98.55% |           4      0.73%     99.27% |           3      0.54%     99.82% |           0      0.00%     99.82% |           1      0.18%    100.00% |           0      0.00%    100.00% |           0      0.00%    100.00% (Unspecified)
system.caches.RequestType.ST.miss_latency_hist_seqr::total          551                       (Unspecified)
system.caches.RequestType.IFETCH.latency_hist_seqr::bucket_size           64                       (Unspecified)
system.caches.RequestType.IFETCH.latency_hist_seqr::max_bucket          639                       (Unspecified)
system.caches.RequestType.IFETCH.latency_hist_seqr::samples        24757                       (Unspecified)
system.caches.RequestType.IFETCH.latency_hist_seqr::mean     4.378883                       (Unspecified)
system.caches.RequestType.IFETCH.latency_hist_seqr::gmean     1.224261                       (Unspecified)
system.caches.RequestType.IFETCH.latency_hist_seqr::stdev    17.301271                       (Unspecified)
system.caches.RequestType.IFETCH.latency_hist_seqr |       24398     98.55%     98.55% |         273      1.10%     99.65% |          64      0.26%     99.91% |           7      0.03%     99.94% |           9      0.04%     99.98% |           3      0.01%     99.99% |           3      0.01%    100.00% |           0      0.00%    100.00% |           0      0.00%    100.00% |           0      0.00%    100.00% (Unspecified)
system.caches.RequestType.IFETCH.latency_hist_seqr::total        24757                       (Unspecified)
system.caches.RequestType.IFETCH.hit_latency_hist_seqr::bucket_size            4                       (Unspecified)
system.caches.RequestType.IFETCH.hit_latency_hist_seqr::max_bucket           39                       (Unspecified)
system.caches.RequestType.IFETCH.hit_latency_hist_seqr::samples        23559                       (Unspecified)
system.caches.RequestType.IFETCH.hit_latency_hist_seqr::mean     1.000806                       (Unspecified)
system.caches.RequestType.IFETCH.hit_latency_hist_seqr::gmean     1.000127                       (Unspecified)
system.caches.RequestType.IFETCH.hit_latency_hist_seqr::stdev     0.123787                       (Unspecified)
system.caches.RequestType.IFETCH.hit_latency_hist_seqr |       23558    100.00%    100.00% |           0      0.00%    100.00% |           0      0.00%    100.00% |           0      0.00%    100.00% |           0      0.00%    100.00% |           1      0.00%    100.00% |           0      0.00%    100.00% |           0      0.00%    100.00% |           0      0.00%    100.00% |           0      0.00%    100.00% (Unspecified)
system.caches.RequestType.IFETCH.hit_latency_hist_seqr::total        23559                       (Unspecified)
system.caches.RequestType.IFETCH.miss_latency_hist_seqr::bucket_size           64                       (Unspecified)
system.caches.RequestType.IFETCH.miss_latency_hist_seqr::max_bucket          639                       (Unspecified)
system.caches.RequestType.IFETCH.miss_latency_hist_seqr::samples         1198                       (Unspecified)
system.caches.RequestType.IFETCH.miss_latency_hist_seqr::mean    70.809683                       (Unspecified)
system.caches.RequestType.IFETCH.miss_latency_hist_seqr::gmean    65.291474                       (Unspecified)
system.caches.RequestType.IFETCH.miss_latency_hist_seqr::stdev    39.358628                       (Unspecified)
system.caches.RequestType.IFETCH.miss_latency_hist_seqr |         839     70.03%     70.03% |         273     22.79%     92.82% |          64      5.34%     98.16% |           7      0.58%     98.75% |           9      0.75%     99.50% |           3      0.25%     99.75% |           3      0.25%    100.00% |           0      0.00%    100.00% |           0      0.00%    100.00% |           0      0.00%    100.00% (Unspecified)
system.caches.RequestType.IFETCH.miss_latency_hist_seqr::total         1198                       (Unspecified)
system.caches.RequestType.RMW_Read.latency_hist_seqr::bucket_size           32                       (Unspecified)
system.caches.RequestType.RMW_Read.latency_hist_seqr::max_bucket          319                       (Unspecified)
system.caches.RequestType.RMW_Read.latency_hist_seqr::samples          425                       (Unspecified)
system.caches.RequestType.RMW_Read.latency_hist_seqr::mean     5.082353                       (Unspecified)
system.caches.RequestType.RMW_Read.latency_hist_seqr::gmean     1.267117                       (Unspecified)
system.caches.RequestType.RMW_Read.latency_hist_seqr::stdev    18.677635                       (Unspecified)
system.caches.RequestType.RMW_Read.latency_hist_seqr |         403     94.82%     94.82% |          11      2.59%     97.41% |           8      1.88%     99.29% |           0      0.00%     99.29% |           2      0.47%     99.76% |           1      0.24%    100.00% |           0      0.00%    100.00% |           0      0.00%    100.00% |           0      0.00%    100.00% |           0      0.00%    100.00% (Unspecified)
system.caches.RequestType.RMW_Read.latency_hist_seqr::total          425                       (Unspecified)
system.caches.RequestType.RMW_Read.hit_latency_hist_seqr::bucket_size           16                       (Unspecified)
system.caches.RequestType.RMW_Read.hit_latency_hist_seqr::max_bucket          159                       (Unspecified)
system.caches.RequestType.RMW_Read.hit_latency_hist_seqr::samples          405                       (Unspecified)
system.caches.RequestType.RMW_Read.hit_latency_hist_seqr::mean     1.743210                       (Unspecified)
system.caches.RequestType.RMW_Read.hit_latency_hist_seqr::gmean     1.042082                       (Unspecified)
system.caches.RequestType.RMW_Read.hit_latency_hist_seqr::stdev     8.561266                       (Unspecified)
system.caches.RequestType.RMW_Read.hit_latency_hist_seqr |         401     99.01%     99.01% |           0      0.00%     99.01% |           2      0.49%     99.51% |           0      0.00%     99.51% |           0      0.00%     99.51% |           1      0.25%     99.75% |           0      0.00%     99.75% |           0      0.00%     99.75% |           1      0.25%    100.00% |           0      0.00%    100.00% (Unspecified)
system.caches.RequestType.RMW_Read.hit_latency_hist_seqr::total          405                       (Unspecified)
system.caches.RequestType.RMW_Read.miss_latency_hist_seqr::bucket_size           32                       (Unspecified)
system.caches.RequestType.RMW_Read.miss_latency_hist_seqr::max_bucket          319                       (Unspecified)
system.caches.RequestType.RMW_Read.miss_latency_hist_seqr::samples           20                       (Unspecified)
system.caches.RequestType.RMW_Read.miss_latency_hist_seqr::mean    72.700000                       (Unspecified)
system.caches.RequestType.RMW_Read.miss_latency_hist_seqr::gmean    66.426828                       (Unspecified)
system.caches.RequestType.RMW_Read.miss_latency_hist_seqr::stdev    34.293010                       (Unspecified)
system.caches.RequestType.RMW_Read.miss_latency_hist_seqr |           2     10.00%     10.00% |           9     45.00%     55.00% |           7     35.00%     90.00% |           0      0.00%     90.00% |           1      5.00%     95.00% |           1      5.00%    100.00% |           0      0.00%    100.00% |           0      0.00%    100.00% |           0      0.00%    100.00% |           0      0.00%    100.00% (Unspecified)
system.caches.RequestType.RMW_Read.miss_latency_hist_seqr::total           20                       (Unspecified)
system.caches.RequestTypeMachineType.LD.Directory.miss_type_mach_latency_hist_seqr::bucket_size           64                       (Unspecified)
system.caches.RequestTypeMachineType.LD.Directory.miss_type_mach_latency_hist_seqr::max_bucket          639                       (Unspecified)
system.caches.RequestTypeMachineType.LD.Directory.miss_type_mach_latency_hist_seqr::samples         1783                       (Unspecified)
system.caches.RequestTypeMachineType.LD.Directory.miss_type_mach_latency_hist_seqr::mean    80.134605                       (Unspecified)
system.caches.RequestTypeMachineType.LD.Directory.miss_type_mach_latency_hist_seqr::gmean    72.203470                       (Unspecified)
system.caches.RequestTypeMachineType.LD.Directory.miss_type_mach_latency_hist_seqr::stdev    48.458202                       (Unspecified)
system.caches.RequestTypeMachineType.LD.Directory.miss_type_mach_latency_hist_seqr |        1012     56.76%     56.76% |         545     30.57%     87.32% |         174      9.76%     97.08% |          18      1.01%     98.09% |          15      0.84%     98.93% |          13      0.73%     99.66% |           6      0.34%    100.00% |           0      0.00%    100.00% |           0      0.00%    100.00% |           0      0.00%    100.00% (Unspecified)
system.caches.RequestTypeMachineType.LD.Directory.miss_type_mach_latency_hist_seqr::total         1783                       (Unspecified)
system.caches.RequestTypeMachineType.ST.Directory.miss_type_mach_latency_hist_seqr::bucket_size           64                       (Unspecified)
system.caches.RequestTypeMachineType.ST.Directory.miss_type_mach_latency_hist_seqr::max_bucket          639                       (Unspecified)
system.caches.RequestTypeMachineType.ST.Directory.miss_type_mach_latency_hist_seqr::samples          551                       (Unspecified)
system.caches.RequestTypeMachineType.ST.Directory.miss_type_mach_latency_hist_seqr::mean    74.023593                       (Unspecified)
system.caches.RequestTypeMachineType.ST.Directory.miss_type_mach_latency_hist_seqr::gmean    67.851011                       (Unspecified)
system.caches.RequestTypeMachineType.ST.Directory.miss_type_mach_latency_hist_seqr::stdev    42.872638                       (Unspecified)
system.caches.RequestTypeMachineType.ST.Directory.miss_type_mach_latency_hist_seqr |         389     70.60%     70.60% |         105     19.06%     89.66% |          48      8.71%     98.37% |           1      0.18%     98.55% |           4      0.73%     99.27% |           3      0.54%     99.82% |           0      0.00%     99.82% |           1      0.18%    100.00% |           0      0.00%    100.00% |           0      0.00%    100.00% (Unspecified)
system.caches.RequestTypeMachineType.ST.Directory.miss_type_mach_latency_hist_seqr::total          551                       (Unspecified)
system.caches.RequestTypeMachineType.IFETCH.Directory.miss_type_mach_latency_hist_seqr::bucket_size           64                       (Unspecified)
system.caches.RequestTypeMachineType.IFETCH.Directory.miss_type_mach_latency_hist_seqr::max_bucket          639                       (Unspecified)
system.caches.RequestTypeMachineType.IFETCH.Directory.miss_type_mach_latency_hist_seqr::samples         1198                       (Unspecified)
system.caches.RequestTypeMachineType.IFETCH.Directory.miss_type_mach_latency_hist_seqr::mean    70.809683                       (Unspecified)
system.caches.RequestTypeMachineType.IFETCH.Directory.miss_type_mach_latency_hist_seqr::gmean    65.291474                       (Unspecified)
system.caches.RequestTypeMachineType.IFETCH.Directory.miss_type_mach_latency_hist_seqr::stdev    39.358628                       (Unspecified)
system.caches.RequestTypeMachineType.IFETCH.Directory.miss_type_mach_latency_hist_seqr |         839     70.03%     70.03% |         273     22.79%     92.82% |          64      5.34%     98.16% |           7      0.58%     98.75% |           9      0.75%     99.50% |           3      0.25%     99.75% |           3      0.25%    100.00% |           0      0.00%    100.00% |           0      0.00%    100.00% |           0      0.00%    100.00% (Unspecified)
system.caches.RequestTypeMachineType.IFETCH.Directory.miss_type_mach_latency_hist_seqr::total         1198                       (Unspecified)
system.caches.RequestTypeMachineType.RMW_Read.Directory.miss_type_mach_latency_hist_seqr::bucket_size           32                       (Unspecified)
system.caches.RequestTypeMachineType.RMW_Read.Directory.miss_type_mach_latency_hist_seqr::max_bucket          319                       (Unspecified)
system.caches.RequestTypeMachineType.RMW_Read.Directory.miss_type_mach_latency_hist_seqr::samples           20                       (Unspecified)
system.caches.RequestTypeMachineType.RMW_Read.Directory.miss_type_mach_latency_hist_seqr::mean    72.700000                       (Unspecified)
system.caches.RequestTypeMachineType.RMW_Read.Directory.miss_type_mach_latency_hist_seqr::gmean    66.426828                       (Unspecified)
system.caches.RequestTypeMachineType.RMW_Read.Directory.miss_type_mach_latency_hist_seqr::stdev    34.293010                       (Unspecified)
system.caches.RequestTypeMachineType.RMW_Read.Directory.miss_type_mach_latency_hist_seqr |           2     10.00%     10.00% |           9     45.00%     55.00% |           7     35.00%     90.00% |           0      0.00%     90.00% |           1      5.00%     95.00% |           1      5.00%    100.00% |           0      0.00%    100.00% |           0      0.00%    100.00% |           0      0.00%    100.00% |           0      0.00%    100.00% (Unspecified)
system.caches.RequestTypeMachineType.RMW_Read.Directory.miss_type_mach_latency_hist_seqr::total           20                       (Unspecified)
system.caches.controllers0.delayHistogram::samples         6592                       # delay_histogram (Unspecified)
system.caches.controllers0.delayHistogram::mean     0.073119                       # delay_histogram (Unspecified)
system.caches.controllers0.delayHistogram::stdev     0.663864                       # delay_histogram (Unspecified)
system.caches.controllers0.delayHistogram::0-1         6495     98.53%     98.53% # delay_histogram (Unspecified)
system.caches.controllers0.delayHistogram::2-3           23      0.35%     98.88% # delay_histogram (Unspecified)
system.caches.controllers0.delayHistogram::4-5           27      0.41%     99.29% # delay_histogram (Unspecified)
system.caches.controllers0.delayHistogram::6-7           28      0.42%     99.71% # delay_histogram (Unspecified)
system.caches.controllers0.delayHistogram::8-9           18      0.27%     99.98% # delay_histogram (Unspecified)
system.caches.controllers0.delayHistogram::16-17            1      0.02%    100.00% # delay_histogram (Unspecified)
system.caches.controllers0.delayHistogram::total         6592                       # delay_histogram (Unspecified)
system.caches.controllers0.cacheMemory.m_demand_hits        66153                       # Number of cache demand hits (Unspecified)
system.caches.controllers0.cacheMemory.m_demand_misses         3553                       # Number of cache demand misses (Unspecified)
system.caches.controllers0.cacheMemory.m_demand_accesses        69706                       # Number of cache demand accesses (Unspecified)
system.caches.controllers0.forwardToCache.m_buf_msgs     0.013757                       # Average number of messages in buffer (Unspecified)
system.caches.controllers0.forwardToCache.m_stall_time  4821.571601                       # Average number of cycles messages are stalled in this MB (Unspecified)
system.caches.controllers0.mandatoryQueue.m_buf_msgs     0.315868                       # Average number of messages in buffer (Unspecified)
system.caches.controllers0.mandatoryQueue.m_stall_time  1000.257936                       # Average number of cycles messages are stalled in this MB (Unspecified)
system.caches.controllers0.power_state.pwrStateResidencyTicks::UNDEFINED    220985000                       # Cumulative time (in ticks) in various power states (Tick)
system.caches.controllers0.requestFromCache.m_buf_msgs     0.059660                       # Average number of messages in buffer (Unspecified)
system.caches.controllers0.requestFromCache.m_stall_time  1999.972849                       # Average number of cycles messages are stalled in this MB (Unspecified)
system.caches.controllers0.responseToCache.m_buf_msgs     0.016073                       # Average number of messages in buffer (Unspecified)
system.caches.controllers0.responseToCache.m_stall_time  5002.135892                       # Average number of cycles messages are stalled in this MB (Unspecified)
system.caches.controllers1.forwardFromDir.m_buf_msgs     0.013757                       # Average number of messages in buffer (Unspecified)
system.caches.controllers1.forwardFromDir.m_stall_time   957.209766                       # Average number of cycles messages are stalled in this MB (Unspecified)
system.caches.controllers1.power_state.pwrStateResidencyTicks::UNDEFINED    220985000                       # Cumulative time (in ticks) in various power states (Tick)
system.caches.controllers1.requestToDir.m_buf_msgs     0.029830                       # Average number of messages in buffer (Unspecified)
system.caches.controllers1.requestToDir.m_stall_time  9793.669268                       # Average number of cycles messages are stalled in this MB (Unspecified)
system.caches.controllers1.requestToMemory.m_buf_msgs     0.029857                       # Average number of messages in buffer (Unspecified)
system.caches.controllers1.requestToMemory.m_stall_time  1000.475145                       # Average number of cycles messages are stalled in this MB (Unspecified)
system.caches.controllers1.responseFromDir.m_buf_msgs     0.016073                       # Average number of messages in buffer (Unspecified)
system.caches.controllers1.responseFromDir.m_stall_time   999.687762                       # Average number of cycles messages are stalled in this MB (Unspecified)
system.caches.controllers1.responseFromMemory.m_buf_msgs     0.035359                       # Average number of messages in buffer (Unspecified)
system.caches.controllers1.responseFromMemory.m_stall_time   999.692287                       # Average number of cycles messages are stalled in this MB (Unspecified)
system.caches.network.msg_count.Control          7104                       (Unspecified)
system.caches.network.msg_byte.Control          56832                       (Unspecified)
system.caches.network.msg_count.Data             6080                       (Unspecified)
system.caches.network.msg_byte.Data            437760                       (Unspecified)
system.caches.network.msg_count.Response_Data         7104                       (Unspecified)
system.caches.network.msg_byte.Response_Data       511488                       (Unspecified)
system.caches.network.msg_count.Writeback_Control         6080                       (Unspecified)
system.caches.network.msg_byte.Writeback_Control        48640                       (Unspecified)
system.caches.network.int_link_buffers2.m_buf_msgs     0.029830                       # Average number of messages in buffer (Unspecified)
system.caches.network.int_link_buffers2.m_stall_time  7793.832175                       # Average number of cycles messages are stalled in this MB (Unspecified)
system.caches.network.int_link_buffers8.m_buf_msgs     0.013757                       # Average number of messages in buffer (Unspecified)
system.caches.network.int_link_buffers8.m_stall_time  2907.215422                       # Average number of cycles messages are stalled in this MB (Unspecified)
system.caches.network.int_link_buffers9.m_buf_msgs     0.016073                       # Average number of messages in buffer (Unspecified)
system.caches.network.int_link_buffers9.m_stall_time  3002.823721                       # Average number of cycles messages are stalled in this MB (Unspecified)
system.caches.network.power_state.pwrStateResidencyTicks::UNDEFINED    220985000                       # Cumulative time (in ticks) in various power states (Tick)
system.caches.network.routers0.percent_links_utilized     7.457520                       (Unspecified)
system.caches.network.routers0.msg_count.Control::2         3552                       (Unspecified)
system.caches.network.routers0.msg_bytes.Control::2        28416                       (Unspecified)
system.caches.network.routers0.msg_count.Data::2         3040                       (Unspecified)
system.caches.network.routers0.msg_bytes.Data::2       218880                       (Unspecified)
system.caches.network.routers0.msg_count.Response_Data::4         3552                       (Unspecified)
system.caches.network.routers0.msg_bytes.Response_Data::4       255744                       (Unspecified)
system.caches.network.routers0.msg_count.Writeback_Control::3         3040                       (Unspecified)
system.caches.network.routers0.msg_bytes.Writeback_Control::3        24320                       (Unspecified)
system.caches.network.routers0.port_buffers3.m_buf_msgs     0.013757                       # Average number of messages in buffer (Unspecified)
system.caches.network.routers0.port_buffers3.m_stall_time  3864.398037                       # Average number of cycles messages are stalled in this MB (Unspecified)
system.caches.network.routers0.port_buffers4.m_buf_msgs     0.016073                       # Average number of messages in buffer (Unspecified)
system.caches.network.routers0.port_buffers4.m_stall_time  4002.484332                       # Average number of cycles messages are stalled in this MB (Unspecified)
system.caches.network.routers0.port_buffers7.m_buf_msgs     0.097111                       # Average number of messages in buffer (Unspecified)
system.caches.network.routers0.port_buffers7.m_stall_time  6793.900053                       # Average number of cycles messages are stalled in this MB (Unspecified)
system.caches.network.routers0.power_state.pwrStateResidencyTicks::UNDEFINED    220985000                       # Cumulative time (in ticks) in various power states (Tick)
system.caches.network.routers0.throttle00.link_utilization     7.920900                       (Unspecified)
system.caches.network.routers0.throttle00.msg_count.Response_Data::4         3552                       (Unspecified)
system.caches.network.routers0.throttle00.msg_bytes.Response_Data::4       255744                       (Unspecified)
system.caches.network.routers0.throttle00.msg_count.Writeback_Control::3         3040                       (Unspecified)
system.caches.network.routers0.throttle00.msg_bytes.Writeback_Control::3        24320                       (Unspecified)
system.caches.network.routers0.throttle01.link_utilization     6.994140                       (Unspecified)
system.caches.network.routers0.throttle01.msg_count.Control::2         3552                       (Unspecified)
system.caches.network.routers0.throttle01.msg_bytes.Control::2        28416                       (Unspecified)
system.caches.network.routers0.throttle01.msg_count.Data::2         3040                       (Unspecified)
system.caches.network.routers0.throttle01.msg_bytes.Data::2       218880                       (Unspecified)
system.caches.network.routers1.percent_links_utilized     7.457520                       (Unspecified)
system.caches.network.routers1.msg_count.Control::2         3552                       (Unspecified)
system.caches.network.routers1.msg_bytes.Control::2        28416                       (Unspecified)
system.caches.network.routers1.msg_count.Data::2         3040                       (Unspecified)
system.caches.network.routers1.msg_bytes.Data::2       218880                       (Unspecified)
system.caches.network.routers1.msg_count.Response_Data::4         3552                       (Unspecified)
system.caches.network.routers1.msg_bytes.Response_Data::4       255744                       (Unspecified)
system.caches.network.routers1.msg_count.Writeback_Control::3         3040                       (Unspecified)
system.caches.network.routers1.msg_bytes.Writeback_Control::3        24320                       (Unspecified)
system.caches.network.routers1.port_buffers2.m_buf_msgs     0.029830                       # Average number of messages in buffer (Unspecified)
system.caches.network.routers1.port_buffers2.m_stall_time  8793.755247                       # Average number of cycles messages are stalled in this MB (Unspecified)
system.caches.network.routers1.port_buffers6.m_buf_msgs     0.014725                       # Average number of messages in buffer (Unspecified)
system.caches.network.routers1.port_buffers6.m_stall_time  1950.023757                       # Average number of cycles messages are stalled in this MB (Unspecified)
system.caches.network.routers1.port_buffers7.m_buf_msgs     0.016196                       # Average number of messages in buffer (Unspecified)
system.caches.network.routers1.port_buffers7.m_stall_time  2003.154060                       # Average number of cycles messages are stalled in this MB (Unspecified)
system.caches.network.routers1.power_state.pwrStateResidencyTicks::UNDEFINED    220985000                       # Cumulative time (in ticks) in various power states (Tick)
system.caches.network.routers1.throttle00.link_utilization     6.994140                       (Unspecified)
system.caches.network.routers1.throttle00.msg_count.Control::2         3552                       (Unspecified)
system.caches.network.routers1.throttle00.msg_bytes.Control::2        28416                       (Unspecified)
system.caches.network.routers1.throttle00.msg_count.Data::2         3040                       (Unspecified)
system.caches.network.routers1.throttle00.msg_bytes.Data::2       218880                       (Unspecified)
system.caches.network.routers1.throttle01.link_utilization     7.920900                       (Unspecified)
system.caches.network.routers1.throttle01.msg_count.Response_Data::4         3552                       (Unspecified)
system.caches.network.routers1.throttle01.msg_bytes.Response_Data::4       255744                       (Unspecified)
system.caches.network.routers1.throttle01.msg_count.Writeback_Control::3         3040                       (Unspecified)
system.caches.network.routers1.throttle01.msg_bytes.Writeback_Control::3        24320                       (Unspecified)
system.caches.power_state.pwrStateResidencyTicks::UNDEFINED    220985000                       # Cumulative time (in ticks) in various power states (Tick)
system.caches.sequencers.power_state.pwrStateResidencyTicks::UNDEFINED    220985000                       # Cumulative time (in ticks) in various power states (Tick)
system.caches.sys_port_proxy.power_state.pwrStateResidencyTicks::UNDEFINED    220985000                       # Cumulative time (in ticks) in various power states (Tick)
system.clk_domain.clock                          1000                       # Clock period in ticks (Tick)
system.clk_domain.voltage_domain.voltage            1                       # Voltage in Volts (Volt)
system.cpu.numCycles                           220986                       # Number of cpu cycles simulated (Cycle)
system.cpu.numWorkItemsStarted                      0                       # Number of work items this cpu started (Count)
system.cpu.numWorkItemsCompleted                    0                       # Number of work items this cpu completed (Count)
system.cpu.instsAdded                          340321                       # Number of instructions added to the IQ (excludes non-spec) (Count)
system.cpu.nonSpecInstsAdded                        5                       # Number of non-speculative instructions added to the IQ (Count)
system.cpu.instsIssued                         303781                       # Number of instructions issued (Count)
system.cpu.squashedInstsIssued                    347                       # Number of squashed instructions issued (Count)
system.cpu.squashedInstsExamined               112929                       # Number of squashed instructions iterated over during squash; mainly for profiling (Count)
system.cpu.squashedOperandsExamined            158992                       # Number of squashed operands that are examined and possibly removed from graph (Count)
system.cpu.squashedNonSpecRemoved                   4                       # Number of squashed non-spec instructions that were removed (Count)
system.cpu.numIssuedDist::samples              190858                       # Number of insts issued each cycle (Count)
system.cpu.numIssuedDist::mean               1.591660                       # Number of insts issued each cycle (Count)
system.cpu.numIssuedDist::stdev              2.282816                       # Number of insts issued each cycle (Count)
system.cpu.numIssuedDist::underflows                0      0.00%      0.00% # Number of insts issued each cycle (Count)
system.cpu.numIssuedDist::0                    109306     57.27%     57.27% # Number of insts issued each cycle (Count)
system.cpu.numIssuedDist::1                     14612      7.66%     64.93% # Number of insts issued each cycle (Count)
system.cpu.numIssuedDist::2                     13272      6.95%     71.88% # Number of insts issued each cycle (Count)
system.cpu.numIssuedDist::3                     12451      6.52%     78.40% # Number of insts issued each cycle (Count)
system.cpu.numIssuedDist::4                     11880      6.22%     84.63% # Number of insts issued each cycle (Count)
system.cpu.numIssuedDist::5                     11028      5.78%     90.41% # Number of insts issued each cycle (Count)
system.cpu.numIssuedDist::6                      9352      4.90%     95.31% # Number of insts issued each cycle (Count)
system.cpu.numIssuedDist::7                      5156      2.70%     98.01% # Number of insts issued each cycle (Count)
system.cpu.numIssuedDist::8                      3801      1.99%    100.00% # Number of insts issued each cycle (Count)
system.cpu.numIssuedDist::overflows                 0      0.00%    100.00% # Number of insts issued each cycle (Count)
system.cpu.numIssuedDist::min_value                 0                       # Number of insts issued each cycle (Count)
system.cpu.numIssuedDist::max_value                 8                       # Number of insts issued each cycle (Count)
system.cpu.numIssuedDist::total                190858                       # Number of insts issued each cycle (Count)
system.cpu.statFuBusy::No_OpClass                   0      0.00%      0.00% # attempts to use FU when none available (Count)
system.cpu.statFuBusy::IntAlu                    3327     72.22%     72.22% # attempts to use FU when none available (Count)
system.cpu.statFuBusy::IntMult                      0      0.00%     72.22% # attempts to use FU when none available (Count)
system.cpu.statFuBusy::IntDiv                       0      0.00%     72.22% # attempts to use FU when none available (Count)
system.cpu.statFuBusy::FloatAdd                     0      0.00%     72.22% # attempts to use FU when none available (Count)
system.cpu.statFuBusy::FloatCmp                     0      0.00%     72.22% # attempts to use FU when none available (Count)
system.cpu.statFuBusy::FloatCvt                     0      0.00%     72.22% # attempts to use FU when none available (Count)
system.cpu.statFuBusy::FloatMult                    0      0.00%     72.22% # attempts to use FU when none available (Count)
system.cpu.statFuBusy::FloatMultAcc                 0      0.00%     72.22% # attempts to use FU when none available (Count)
system.cpu.statFuBusy::FloatDiv                     0      0.00%     72.22% # attempts to use FU when none available (Count)
system.cpu.statFuBusy::FloatMisc                    0      0.00%     72.22% # attempts to use FU when none available (Count)
system.cpu.statFuBusy::FloatSqrt                    0      0.00%     72.22% # attempts to use FU when none available (Count)
system.cpu.statFuBusy::SimdAdd                      0      0.00%     72.22% # attempts to use FU when none available (Count)
system.cpu.statFuBusy::SimdAddAcc                   0      0.00%     72.22% # attempts to use FU when none available (Count)
system.cpu.statFuBusy::SimdAlu                     24      0.52%     72.74% # attempts to use FU when none available (Count)
system.cpu.statFuBusy::SimdCmp                      0      0.00%     72.74% # attempts to use FU when none available (Count)
system.cpu.statFuBusy::SimdCvt                      9      0.20%     72.93% # attempts to use FU when none available (Count)
system.cpu.statFuBusy::SimdMisc                     1      0.02%     72.95% # attempts to use FU when none available (Count)
system.cpu.statFuBusy::SimdMult                     0      0.00%     72.95% # attempts to use FU when none available (Count)
system.cpu.statFuBusy::SimdMultAcc                  0      0.00%     72.95% # attempts to use FU when none available (Count)
system.cpu.statFuBusy::SimdShift                   20      0.43%     73.39% # attempts to use FU when none available (Count)
system.cpu.statFuBusy::SimdShiftAcc                 0      0.00%     73.39% # attempts to use FU when none available (Count)
system.cpu.statFuBusy::SimdDiv                      0      0.00%     73.39% # attempts to use FU when none available (Count)
system.cpu.statFuBusy::SimdSqrt                     0      0.00%     73.39% # attempts to use FU when none available (Count)
system.cpu.statFuBusy::SimdFloatAdd                 0      0.00%     73.39% # attempts to use FU when none available (Count)
system.cpu.statFuBusy::SimdFloatAlu                 0      0.00%     73.39% # attempts to use FU when none available (Count)
system.cpu.statFuBusy::SimdFloatCmp                 0      0.00%     73.39% # attempts to use FU when none available (Count)
system.cpu.statFuBusy::SimdFloatCvt                 0      0.00%     73.39% # attempts to use FU when none available (Count)
system.cpu.statFuBusy::SimdFloatDiv                 0      0.00%     73.39% # attempts to use FU when none available (Count)
system.cpu.statFuBusy::SimdFloatMisc                0      0.00%     73.39% # attempts to use FU when none available (Count)
system.cpu.statFuBusy::SimdFloatMult                0      0.00%     73.39% # attempts to use FU when none available (Count)
system.cpu.statFuBusy::SimdFloatMultAcc             0      0.00%     73.39% # attempts to use FU when none available (Count)
system.cpu.statFuBusy::SimdFloatSqrt                0      0.00%     73.39% # attempts to use FU when none available (Count)
system.cpu.statFuBusy::SimdReduceAdd                0      0.00%     73.39% # attempts to use FU when none available (Count)
system.cpu.statFuBusy::SimdReduceAlu                0      0.00%     73.39% # attempts to use FU when none available (Count)
system.cpu.statFuBusy::SimdReduceCmp                0      0.00%     73.39% # attempts to use FU when none available (Count)
system.cpu.statFuBusy::SimdFloatReduceAdd            0      0.00%     73.39% # attempts to use FU when none available (Count)
system.cpu.statFuBusy::SimdFloatReduceCmp            0      0.00%     73.39% # attempts to use FU when none available (Count)
system.cpu.statFuBusy::SimdAes                      0      0.00%     73.39% # attempts to use FU when none available (Count)
system.cpu.statFuBusy::SimdAesMix                   0      0.00%     73.39% # attempts to use FU when none available (Count)
system.cpu.statFuBusy::SimdSha1Hash                 0      0.00%     73.39% # attempts to use FU when none available (Count)
system.cpu.statFuBusy::SimdSha1Hash2                0      0.00%     73.39% # attempts to use FU when none available (Count)
system.cpu.statFuBusy::SimdSha256Hash               0      0.00%     73.39% # attempts to use FU when none available (Count)
system.cpu.statFuBusy::SimdSha256Hash2              0      0.00%     73.39% # attempts to use FU when none available (Count)
system.cpu.statFuBusy::SimdShaSigma2                0      0.00%     73.39% # attempts to use FU when none available (Count)
system.cpu.statFuBusy::SimdShaSigma3                0      0.00%     73.39% # attempts to use FU when none available (Count)
system.cpu.statFuBusy::SimdPredAlu                  0      0.00%     73.39% # attempts to use FU when none available (Count)
system.cpu.statFuBusy::MemRead                    758     16.45%     89.84% # attempts to use FU when none available (Count)
system.cpu.statFuBusy::MemWrite                   436      9.46%     99.31% # attempts to use FU when none available (Count)
system.cpu.statFuBusy::FloatMemRead                13      0.28%     99.59% # attempts to use FU when none available (Count)
system.cpu.statFuBusy::FloatMemWrite               19      0.41%    100.00% # attempts to use FU when none available (Count)
system.cpu.statFuBusy::IprAccess                    0      0.00%    100.00% # attempts to use FU when none available (Count)
system.cpu.statFuBusy::InstPrefetch                 0      0.00%    100.00% # attempts to use FU when none available (Count)
system.cpu.statIssuedInstType_0::No_OpClass         3356      1.10%      1.10% # Number of instructions issued per FU type, per thread (Count)
system.cpu.statIssuedInstType_0::IntAlu        226219     74.47%     75.57% # Number of instructions issued per FU type, per thread (Count)
system.cpu.statIssuedInstType_0::IntMult           23      0.01%     75.58% # Number of instructions issued per FU type, per thread (Count)
system.cpu.statIssuedInstType_0::IntDiv          2016      0.66%     76.24% # Number of instructions issued per FU type, per thread (Count)
system.cpu.statIssuedInstType_0::FloatAdd          659      0.22%     76.46% # Number of instructions issued per FU type, per thread (Count)
system.cpu.statIssuedInstType_0::FloatCmp            0      0.00%     76.46% # Number of instructions issued per FU type, per thread (Count)
system.cpu.statIssuedInstType_0::FloatCvt            0      0.00%     76.46% # Number of instructions issued per FU type, per thread (Count)
system.cpu.statIssuedInstType_0::FloatMult            0      0.00%     76.46% # Number of instructions issued per FU type, per thread (Count)
system.cpu.statIssuedInstType_0::FloatMultAcc            0      0.00%     76.46% # Number of instructions issued per FU type, per thread (Count)
system.cpu.statIssuedInstType_0::FloatDiv            0      0.00%     76.46% # Number of instructions issued per FU type, per thread (Count)
system.cpu.statIssuedInstType_0::FloatMisc            0      0.00%     76.46% # Number of instructions issued per FU type, per thread (Count)
system.cpu.statIssuedInstType_0::FloatSqrt            0      0.00%     76.46% # Number of instructions issued per FU type, per thread (Count)
system.cpu.statIssuedInstType_0::SimdAdd          751      0.25%     76.71% # Number of instructions issued per FU type, per thread (Count)
system.cpu.statIssuedInstType_0::SimdAddAcc            0      0.00%     76.71% # Number of instructions issued per FU type, per thread (Count)
system.cpu.statIssuedInstType_0::SimdAlu         1903      0.63%     77.33% # Number of instructions issued per FU type, per thread (Count)
system.cpu.statIssuedInstType_0::SimdCmp            0      0.00%     77.33% # Number of instructions issued per FU type, per thread (Count)
system.cpu.statIssuedInstType_0::SimdCvt         1781      0.59%     77.92% # Number of instructions issued per FU type, per thread (Count)
system.cpu.statIssuedInstType_0::SimdMisc         1292      0.43%     78.35% # Number of instructions issued per FU type, per thread (Count)
system.cpu.statIssuedInstType_0::SimdMult            0      0.00%     78.35% # Number of instructions issued per FU type, per thread (Count)
system.cpu.statIssuedInstType_0::SimdMultAcc            0      0.00%     78.35% # Number of instructions issued per FU type, per thread (Count)
system.cpu.statIssuedInstType_0::SimdShift          622      0.20%     78.55% # Number of instructions issued per FU type, per thread (Count)
system.cpu.statIssuedInstType_0::SimdShiftAcc            0      0.00%     78.55% # Number of instructions issued per FU type, per thread (Count)
system.cpu.statIssuedInstType_0::SimdDiv            0      0.00%     78.55% # Number of instructions issued per FU type, per thread (Count)
system.cpu.statIssuedInstType_0::SimdSqrt            0      0.00%     78.55% # Number of instructions issued per FU type, per thread (Count)
system.cpu.statIssuedInstType_0::SimdFloatAdd            0      0.00%     78.55% # Number of instructions issued per FU type, per thread (Count)
system.cpu.statIssuedInstType_0::SimdFloatAlu            0      0.00%     78.55% # Number of instructions issued per FU type, per thread (Count)
system.cpu.statIssuedInstType_0::SimdFloatCmp            0      0.00%     78.55% # Number of instructions issued per FU type, per thread (Count)
system.cpu.statIssuedInstType_0::SimdFloatCvt            0      0.00%     78.55% # Number of instructions issued per FU type, per thread (Count)
system.cpu.statIssuedInstType_0::SimdFloatDiv            0      0.00%     78.55% # Number of instructions issued per FU type, per thread (Count)
system.cpu.statIssuedInstType_0::SimdFloatMisc            0      0.00%     78.55% # Number of instructions issued per FU type, per thread (Count)
system.cpu.statIssuedInstType_0::SimdFloatMult            0      0.00%     78.55% # Number of instructions issued per FU type, per thread (Count)
system.cpu.statIssuedInstType_0::SimdFloatMultAcc            0      0.00%     78.55% # Number of instructions issued per FU type, per thread (Count)
system.cpu.statIssuedInstType_0::SimdFloatSqrt            0      0.00%     78.55% # Number of instructions issued per FU type, per thread (Count)
system.cpu.statIssuedInstType_0::SimdReduceAdd            0      0.00%     78.55% # Number of instructions issued per FU type, per thread (Count)
system.cpu.statIssuedInstType_0::SimdReduceAlu            0      0.00%     78.55% # Number of instructions issued per FU type, per thread (Count)
system.cpu.statIssuedInstType_0::SimdReduceCmp            0      0.00%     78.55% # Number of instructions issued per FU type, per thread (Count)
system.cpu.statIssuedInstType_0::SimdFloatReduceAdd            0      0.00%     78.55% # Number of instructions issued per FU type, per thread (Count)
system.cpu.statIssuedInstType_0::SimdFloatReduceCmp            0      0.00%     78.55% # Number of instructions issued per FU type, per thread (Count)
system.cpu.statIssuedInstType_0::SimdAes            0      0.00%     78.55% # Number of instructions issued per FU type, per thread (Count)
system.cpu.statIssuedInstType_0::SimdAesMix            0      0.00%     78.55% # Number of instructions issued per FU type, per thread (Count)
system.cpu.statIssuedInstType_0::SimdSha1Hash            0      0.00%     78.55% # Number of instructions issued per FU type, per thread (Count)
system.cpu.statIssuedInstType_0::SimdSha1Hash2            0      0.00%     78.55% # Number of instructions issued per FU type, per thread (Count)
system.cpu.statIssuedInstType_0::SimdSha256Hash            0      0.00%     78.55% # Number of instructions issued per FU type, per thread (Count)
system.cpu.statIssuedInstType_0::SimdSha256Hash2            0      0.00%     78.55% # Number of instructions issued per FU type, per thread (Count)
system.cpu.statIssuedInstType_0::SimdShaSigma2            0      0.00%     78.55% # Number of instructions issued per FU type, per thread (Count)
system.cpu.statIssuedInstType_0::SimdShaSigma3            0      0.00%     78.55% # Number of instructions issued per FU type, per thread (Count)
system.cpu.statIssuedInstType_0::SimdPredAlu            0      0.00%     78.55% # Number of instructions issued per FU type, per thread (Count)
system.cpu.statIssuedInstType_0::MemRead        43763     14.41%     92.96% # Number of instructions issued per FU type, per thread (Count)
system.cpu.statIssuedInstType_0::MemWrite        17663      5.81%     98.77% # Number of instructions issued per FU type, per thread (Count)
system.cpu.statIssuedInstType_0::FloatMemRead         2478      0.82%     99.59% # Number of instructions issued per FU type, per thread (Count)
system.cpu.statIssuedInstType_0::FloatMemWrite         1255      0.41%    100.00% # Number of instructions issued per FU type, per thread (Count)
system.cpu.statIssuedInstType_0::IprAccess            0      0.00%    100.00% # Number of instructions issued per FU type, per thread (Count)
system.cpu.statIssuedInstType_0::InstPrefetch            0      0.00%    100.00% # Number of instructions issued per FU type, per thread (Count)
system.cpu.statIssuedInstType_0::total         303781                       # Number of instructions issued per FU type, per thread (Count)
system.cpu.issueRate                         1.374662                       # Inst issue rate ((Count/Cycle))
system.cpu.fuBusy                                4607                       # FU busy when requested (Count)
system.cpu.fuBusyRate                        0.015166                       # FU busy rate (busy events/executed inst) ((Count/Count))
system.cpu.intInstQueueReads                   781119                       # Number of integer instruction queue reads (Count)
system.cpu.intInstQueueWrites                  433880                       # Number of integer instruction queue writes (Count)
system.cpu.intInstQueueWakeupAccesses          283971                       # Number of integer instruction queue wakeup accesses (Count)
system.cpu.fpInstQueueReads                     22250                       # Number of floating instruction queue reads (Count)
system.cpu.fpInstQueueWrites                    19430                       # Number of floating instruction queue writes (Count)
system.cpu.fpInstQueueWakeupAccesses            10450                       # Number of floating instruction queue wakeup accesses (Count)
system.cpu.vecInstQueueReads                        0                       # Number of vector instruction queue reads (Count)
system.cpu.vecInstQueueWrites                       0                       # Number of vector instruction queue writes (Count)
system.cpu.vecInstQueueWakeupAccesses               0                       # Number of vector instruction queue wakeup accesses (Count)
system.cpu.intAluAccesses                      293890                       # Number of integer alu accesses (Count)
system.cpu.fpAluAccesses                        11142                       # Number of floating point alu accesses (Count)
system.cpu.vecAluAccesses                           0                       # Number of vector alu accesses (Count)
system.cpu.idleCycles                               0                       # Number of cycles IEW is idle (Cycle)
system.cpu.squashCycles                          2604                       # Number of cycles IEW is squashing (Cycle)
system.cpu.blockCycles                          49722                       # Number of cycles IEW is blocking (Cycle)
system.cpu.unblockCycles                         3643                       # Number of cycles IEW is unblocking (Cycle)
system.cpu.dispatchedInsts                     340326                       # Number of instructions dispatched to IQ (Count)
system.cpu.dispSquashedInsts                      448                       # Number of squashed instructions skipped by dispatch (Count)
system.cpu.dispLoadInsts                        48068                       # Number of dispatched load instructions (Count)
system.cpu.dispStoreInsts                       21083                       # Number of dispatched store instructions (Count)
system.cpu.dispNonSpecInsts                         5                       # Number of dispatched non-speculative instructions (Count)
system.cpu.iqFullEvents                           860                       # Number of times the IQ has become full, causing a stall (Count)
system.cpu.lsqFullEvents                         2385                       # Number of times the LSQ has become full, causing a stall (Count)
system.cpu.memOrderViolationEvents                 63                       # Number of memory order violations (Count)
system.cpu.predictedTakenIncorrect                563                       # Number of branches that were predicted taken incorrectly (Count)
system.cpu.predictedNotTakenIncorrect            2328                       # Number of branches that were predicted not taken incorrectly (Count)
system.cpu.branchMispredicts                     2891                       # Number of branch mispredicts detected at execute (Count)
system.cpu.numInsts                            299111                       # Number of executed instructions (Count)
system.cpu.numLoadInsts                         45177                       # Number of load instructions executed (Count)
system.cpu.numSquashedInsts                      4665                       # Number of squashed instructions skipped in execute (Count)
system.cpu.numSwp                                   0                       # Number of swp insts executed (Count)
system.cpu.numNop                                   0                       # Number of nop insts executed (Count)
system.cpu.numRefs                              63641                       # Number of memory reference insts executed (Count)
system.cpu.numBranches                          28102                       # Number of branches executed (Count)
system.cpu.numStoreInsts                        18464                       # Number of stores executed (Count)
system.cpu.numRate                           1.353529                       # Inst execution rate ((Count/Cycle))
system.cpu.instsToCommit                       295950                       # Cumulative count of insts sent to commit (Count)
system.cpu.writebackCount                      294421                       # Cumulative count of insts written-back (Count)
system.cpu.producerInst                        221696                       # Number of instructions producing a value (Count)
system.cpu.consumerInst                        386787                       # Number of instructions consuming a value (Count)
system.cpu.wbRate                            1.332306                       # Insts written-back per cycle ((Count/Cycle))
system.cpu.wbFanout                          0.573173                       # Average fanout of values written-back ((Count/Count))
system.cpu.timesIdled                             755                       # Number of times that the entire CPU went into an idle state and unscheduled itself (Count)
system.cpu.idleCycles                           30128                       # Total number of cycles that the CPU has spent unscheduled due to idling (Cycle)
system.cpu.committedInsts                      123064                       # Number of Instructions Simulated (Count)
system.cpu.committedOps                        227381                       # Number of Ops (including micro ops) Simulated (Count)
system.cpu.cpi                               1.795700                       # CPI: Cycles Per Instruction ((Cycle/Count))
system.cpu.totalCpi                          1.795700                       # CPI: Total CPI of All Threads ((Cycle/Count))
system.cpu.ipc                               0.556886                       # IPC: Instructions Per Cycle ((Count/Cycle))
system.cpu.totalIpc                          0.556886                       # IPC: Total IPC of All Threads ((Count/Cycle))
system.cpu.intRegfileReads                     440623                       # Number of integer regfile reads (Count)
system.cpu.intRegfileWrites                    241107                       # Number of integer regfile writes (Count)
system.cpu.fpRegfileReads                       15648                       # Number of floating regfile reads (Count)
system.cpu.fpRegfileWrites                       8460                       # Number of floating regfile writes (Count)
system.cpu.ccRegfileReads                      160038                       # number of cc regfile reads (Count)
system.cpu.ccRegfileWrites                     103442                       # number of cc regfile writes (Count)
system.cpu.miscRegfileReads                    123356                       # number of misc regfile reads (Count)
system.cpu.MemDepUnit__0.insertedLoads          48068                       # Number of loads inserted to the mem dependence unit. (Count)
system.cpu.MemDepUnit__0.insertedStores         21083                       # Number of stores inserted to the mem dependence unit. (Count)
system.cpu.MemDepUnit__0.conflictingLoads         1201                       # Number of conflicting loads. (Count)
system.cpu.MemDepUnit__0.conflictingStores          679                       # Number of conflicting stores. (Count)
system.cpu.MemDepUnit__1.insertedLoads              0                       # Number of loads inserted to the mem dependence unit. (Count)
system.cpu.MemDepUnit__1.insertedStores             0                       # Number of stores inserted to the mem dependence unit. (Count)
system.cpu.MemDepUnit__1.conflictingLoads            0                       # Number of conflicting loads. (Count)
system.cpu.MemDepUnit__1.conflictingStores            0                       # Number of conflicting stores. (Count)
system.cpu.MemDepUnit__2.insertedLoads              0                       # Number of loads inserted to the mem dependence unit. (Count)
system.cpu.MemDepUnit__2.insertedStores             0                       # Number of stores inserted to the mem dependence unit. (Count)
system.cpu.MemDepUnit__2.conflictingLoads            0                       # Number of conflicting loads. (Count)
system.cpu.MemDepUnit__2.conflictingStores            0                       # Number of conflicting stores. (Count)
system.cpu.MemDepUnit__3.insertedLoads              0                       # Number of loads inserted to the mem dependence unit. (Count)
system.cpu.MemDepUnit__3.insertedStores             0                       # Number of stores inserted to the mem dependence unit. (Count)
system.cpu.MemDepUnit__3.conflictingLoads            0                       # Number of conflicting loads. (Count)
system.cpu.MemDepUnit__3.conflictingStores            0                       # Number of conflicting stores. (Count)
system.cpu.branchPred.lookups                   39932                       # Number of BP lookups (Count)
system.cpu.branchPred.condPredicted             33588                       # Number of conditional branches predicted (Count)
system.cpu.branchPred.condIncorrect              2725                       # Number of conditional branches incorrect (Count)
system.cpu.branchPred.BTBLookups                15615                       # Number of BTB lookups (Count)
system.cpu.branchPred.BTBHits                   13937                       # Number of BTB hits (Count)
system.cpu.branchPred.BTBHitRatio            0.892539                       # BTB Hit Ratio (Ratio)
system.cpu.branchPred.RASUsed                    1730                       # Number of times the RAS was used to get a target. (Count)
system.cpu.branchPred.RASIncorrect                  3                       # Number of incorrect RAS predictions. (Count)
[...]
system.mem_ctrl.rdPerTurnAround::mean       15.904762                       # Reads before turning the bus around for writes (Count)
system.mem_ctrl.rdPerTurnAround::gmean      15.868273                       # Reads before turning the bus around for writes (Count)
system.mem_ctrl.rdPerTurnAround::stdev       1.007521                       # Reads before turning the bus around for writes (Count)
system.mem_ctrl.rdPerTurnAround::11                 1      2.38%      2.38% # Reads before turning the bus around for writes (Count)
system.mem_ctrl.rdPerTurnAround::13                 1      2.38%      4.76% # Reads before turning the bus around for writes (Count)
system.mem_ctrl.rdPerTurnAround::15                 1      2.38%      7.14% # Reads before turning the bus around for writes (Count)
system.mem_ctrl.rdPerTurnAround::16                35     83.33%     90.48% # Reads before turning the bus around for writes (Count)
system.mem_ctrl.rdPerTurnAround::17                 3      7.14%     97.62% # Reads before turning the bus around for writes (Count)
system.mem_ctrl.rdPerTurnAround::18                 1      2.38%    100.00% # Reads before turning the bus around for writes (Count)
system.mem_ctrl.rdPerTurnAround::total             42                       # Reads before turning the bus around for writes (Count)
system.mem_ctrl.wrPerTurnAround::samples           42                       # Writes before turning the bus around for reads (Count)
system.mem_ctrl.wrPerTurnAround::mean       16.119048                       # Writes before turning the bus around for reads (Count)
system.mem_ctrl.wrPerTurnAround::gmean      16.110718                       # Writes before turning the bus around for reads (Count)
system.mem_ctrl.wrPerTurnAround::stdev       0.550050                       # Writes before turning the bus around for reads (Count)
system.mem_ctrl.wrPerTurnAround::16                40     95.24%     95.24% # Writes before turning the bus around for reads (Count)
system.mem_ctrl.wrPerTurnAround::18                 1      2.38%     97.62% # Writes before turning the bus around for reads (Count)
system.mem_ctrl.wrPerTurnAround::19                 1      2.38%    100.00% # Writes before turning the bus around for reads (Count)
system.mem_ctrl.wrPerTurnAround::total             42                       # Writes before turning the bus around for reads (Count)
system.mem_ctrl.bytesReadWrQ                      640                       # Total number of bytes read from write queue (Byte)
system.mem_ctrl.bytesReadSys                    43264                       # Total read bytes from the system interface side (Byte)
system.mem_ctrl.bytesWrittenSys                 43264                       # Total written bytes from the system interface side (Byte)
system.mem_ctrl.avgRdBWSys               72133115.47567442                       # Average system read bandwidth in Byte/s ((Byte/Second))
system.mem_ctrl.avgWrBWSys               72133115.47567442                       # Average system write bandwidth in Byte/s ((Byte/Second))
system.mem_ctrl.totGap                      720588000                       # Total gap between requests (Tick)
system.mem_ctrl.avgGap                      532979.29                       # Average gap between requests ((Tick/Count))
system.mem_ctrl.requestorReadBytes::caches.controllers1        42624                       # Per-requestor bytes read from memory (Byte)
system.mem_ctrl.requestorWriteBytes::caches.controllers1        43328                       # Per-requestor bytes write to memory (Byte)
system.mem_ctrl.requestorReadRate::caches.controllers1 71066057.554436638951                       # Per-requestor bytes read from memory rate ((Byte/Second))
system.mem_ctrl.requestorWriteRate::caches.controllers1 72239821.267798200250                       # Per-requestor bytes write to memory rate ((Byte/Second))
system.mem_ctrl.requestorReadAccesses::caches.controllers1          676                       # Per-requestor read serviced memory accesses (Count)
system.mem_ctrl.requestorWriteAccesses::caches.controllers1          676                       # Per-requestor write serviced memory accesses (Count)
system.mem_ctrl.requestorReadTotalLat::caches.controllers1     24126250                       # Per-requestor read total memory access latency (Tick)
system.mem_ctrl.requestorWriteTotalLat::caches.controllers1  18673068500                       # Per-requestor write total memory access latency (Tick)
system.mem_ctrl.requestorReadAvgLat::caches.controllers1     35689.72                       # Per-requestor read average memory access latency ((Tick/Count))
system.mem_ctrl.requestorWriteAvgLat::caches.controllers1  27622882.40                       # Per-requestor write average memory access latency ((Tick/Count))
system.mem_ctrl.dram.bytesRead::caches.controllers1        43264                       # Number of bytes read from this memory (Byte)
system.mem_ctrl.dram.bytesRead::total           43264                       # Number of bytes read from this memory (Byte)
system.mem_ctrl.dram.bytesWritten::caches.controllers1        43264                       # Number of bytes written to this memory (Byte)
system.mem_ctrl.dram.bytesWritten::total        43264                       # Number of bytes written to this memory (Byte)
system.mem_ctrl.dram.numReads::caches.controllers1          676                       # Number of read requests responded to by this memory (Count)
system.mem_ctrl.dram.numReads::total              676                       # Number of read requests responded to by this memory (Count)
system.mem_ctrl.dram.numWrites::caches.controllers1          676                       # Number of write requests responded to by this memory (Count)
system.mem_ctrl.dram.numWrites::total             676                       # Number of write requests responded to by this memory (Count)
system.mem_ctrl.dram.bwRead::caches.controllers1     72133115                       # Total read bandwidth from this memory ((Byte/Second))
system.mem_ctrl.dram.bwRead::total           72133115                       # Total read bandwidth from this memory ((Byte/Second))
system.mem_ctrl.dram.bwWrite::caches.controllers1     72133115                       # Write bandwidth from this memory ((Byte/Second))
system.mem_ctrl.dram.bwWrite::total          72133115                       # Write bandwidth from this memory ((Byte/Second))
system.mem_ctrl.dram.bwTotal::caches.controllers1    144266231                       # Total bandwidth to/from this memory ((Byte/Second))
system.mem_ctrl.dram.bwTotal::total         144266231                       # Total bandwidth to/from this memory ((Byte/Second))
system.mem_ctrl.dram.readBursts                   666                       # Number of DRAM read bursts (Count)
system.mem_ctrl.dram.writeBursts                  677                       # Number of DRAM write bursts (Count)
system.mem_ctrl.dram.perBankRdBursts::0            33                       # Per bank write bursts (Count)
system.mem_ctrl.dram.perBankRdBursts::1            20                       # Per bank write bursts (Count)
system.mem_ctrl.dram.perBankRdBursts::2            61                       # Per bank write bursts (Count)
system.mem_ctrl.dram.perBankRdBursts::3           144                       # Per bank write bursts (Count)
system.mem_ctrl.dram.perBankRdBursts::4            61                       # Per bank write bursts (Count)
system.mem_ctrl.dram.perBankRdBursts::5            39                       # Per bank write bursts (Count)
system.mem_ctrl.dram.perBankRdBursts::6            17                       # Per bank write bursts (Count)
system.mem_ctrl.dram.perBankRdBursts::7             5                       # Per bank write bursts (Count)
system.mem_ctrl.dram.perBankRdBursts::8            23                       # Per bank write bursts (Count)
system.mem_ctrl.dram.perBankRdBursts::9            28                       # Per bank write bursts (Count)
system.mem_ctrl.dram.perBankRdBursts::10           18                       # Per bank write bursts (Count)
system.mem_ctrl.dram.perBankRdBursts::11          109                       # Per bank write bursts (Count)
system.mem_ctrl.dram.perBankRdBursts::12           19                       # Per bank write bursts (Count)
system.mem_ctrl.dram.perBankRdBursts::13           13                       # Per bank write bursts (Count)
system.mem_ctrl.dram.perBankRdBursts::14           41                       # Per bank write bursts (Count)
system.mem_ctrl.dram.perBankRdBursts::15           35                       # Per bank write bursts (Count)
system.mem_ctrl.dram.perBankWrBursts::0           130                       # Per bank write bursts (Count)
system.mem_ctrl.dram.perBankWrBursts::1           131                       # Per bank write bursts (Count)
system.mem_ctrl.dram.perBankWrBursts::2           135                       # Per bank write bursts (Count)
system.mem_ctrl.dram.perBankWrBursts::3            77                       # Per bank write bursts (Count)
system.mem_ctrl.dram.perBankWrBursts::4             3                       # Per bank write bursts (Count)
system.mem_ctrl.dram.perBankWrBursts::5             3                       # Per bank write bursts (Count)
system.mem_ctrl.dram.perBankWrBursts::6             2                       # Per bank write bursts (Count)
system.mem_ctrl.dram.perBankWrBursts::7             1                       # Per bank write bursts (Count)
system.mem_ctrl.dram.perBankWrBursts::8             3                       # Per bank write bursts (Count)
system.mem_ctrl.dram.perBankWrBursts::9             1                       # Per bank write bursts (Count)
system.mem_ctrl.dram.perBankWrBursts::10            1                       # Per bank write bursts (Count)
system.mem_ctrl.dram.perBankWrBursts::11           41                       # Per bank write bursts (Count)
system.mem_ctrl.dram.perBankWrBursts::12            4                       # Per bank write bursts (Count)
system.mem_ctrl.dram.perBankWrBursts::13            2                       # Per bank write bursts (Count)
system.mem_ctrl.dram.perBankWrBursts::14           26                       # Per bank write bursts (Count)
system.mem_ctrl.dram.perBankWrBursts::15          117                       # Per bank write bursts (Count)
system.mem_ctrl.dram.totQLat                 11638750                       # Total ticks spent queuing (Tick)
system.mem_ctrl.dram.totBusLat                3330000                       # Total ticks spent in databus transfers (Tick)
system.mem_ctrl.dram.totMemAccLat            24126250                       # Total ticks spent from burst creation until serviced by the DRAM (Tick)
system.mem_ctrl.dram.avgQLat                 17475.60                       # Average queueing delay per DRAM burst ((Tick/Count))
system.mem_ctrl.dram.avgBusLat                5000.00                       # Average bus latency per DRAM burst ((Tick/Count))
system.mem_ctrl.dram.avgMemAccLat            36225.60                       # Average memory access latency per DRAM burst ((Tick/Count))
system.mem_ctrl.dram.readRowHits                  520                       # Number of row buffer hits during reads (Count)
system.mem_ctrl.dram.writeRowHits                 599                       # Number of row buffer hits during writes (Count)
system.mem_ctrl.dram.readRowHitRate             78.08                       # Row buffer hit rate for reads (Ratio)
system.mem_ctrl.dram.writeRowHitRate            88.48                       # Row buffer hit rate for writes (Ratio)
system.mem_ctrl.dram.bytesPerActivate::samples          212                       # Bytes accessed per row activation (Byte)
system.mem_ctrl.dram.bytesPerActivate::mean   395.471698                       # Bytes accessed per row activation (Byte)
system.mem_ctrl.dram.bytesPerActivate::gmean   243.958757                       # Bytes accessed per row activation (Byte)
system.mem_ctrl.dram.bytesPerActivate::stdev   356.940799                       # Bytes accessed per row activation (Byte)
system.mem_ctrl.dram.bytesPerActivate::0-127           55     25.94%     25.94% # Bytes accessed per row activation (Byte)
system.mem_ctrl.dram.bytesPerActivate::128-255           50     23.58%     49.53% # Bytes accessed per row activation (Byte)
system.mem_ctrl.dram.bytesPerActivate::256-383           20      9.43%     58.96% # Bytes accessed per row activation (Byte)
system.mem_ctrl.dram.bytesPerActivate::384-511           21      9.91%     68.87% # Bytes accessed per row activation (Byte)
system.mem_ctrl.dram.bytesPerActivate::512-639            8      3.77%     72.64% # Bytes accessed per row activation (Byte)
system.mem_ctrl.dram.bytesPerActivate::640-767            7      3.30%     75.94% # Bytes accessed per row activation (Byte)
system.mem_ctrl.dram.bytesPerActivate::768-895           11      5.19%     81.13% # Bytes accessed per row activation (Byte)
system.mem_ctrl.dram.bytesPerActivate::896-1023            6      2.83%     83.96% # Bytes accessed per row activation (Byte)
system.mem_ctrl.dram.bytesPerActivate::1024-1151           34     16.04%    100.00% # Bytes accessed per row activation (Byte)
system.mem_ctrl.dram.bytesPerActivate::total          212                       # Bytes accessed per row activation (Byte)
system.mem_ctrl.dram.bytesRead                  42624                       # Total number of bytes read from DRAM (Byte)
system.mem_ctrl.dram.bytesWritten               43328                       # Total number of bytes written to DRAM (Byte)
system.mem_ctrl.dram.avgRdBW                71.066058                       # Average DRAM read bandwidth in MiBytes/s ((Byte/Second))
system.mem_ctrl.dram.avgWrBW                72.239821                       # Average DRAM write bandwidth in MiBytes/s ((Byte/Second))
system.mem_ctrl.dram.peakBW                  12800.00                       # Theoretical peak bandwidth in MiByte/s ((Byte/Second))
system.mem_ctrl.dram.busUtil                     1.12                       # Data bus utilization in percentage (Ratio)
system.mem_ctrl.dram.busUtilRead                 0.56                       # Data bus utilization in percentage for reads (Ratio)
system.mem_ctrl.dram.busUtilWrite                0.56                       # Data bus utilization in percentage for writes (Ratio)
system.mem_ctrl.dram.pageHitRate                83.32                       # Row buffer hit rate, read and write combined (Ratio)
system.mem_ctrl.dram.power_state.pwrStateResidencyTicks::UNDEFINED    599780000                       # Cumulative time (in ticks) in various power states (Tick)
system.mem_ctrl.dram.rank0.actEnergy           963900                       # Energy for activate commands per rank (pJ) (Joule)
system.mem_ctrl.dram.rank0.preEnergy           489555                       # Energy for precharge commands per rank (pJ) (Joule)
system.mem_ctrl.dram.rank0.readEnergy         2713200                       # Energy for read commands per rank (pJ) (Joule)
system.mem_ctrl.dram.rank0.writeEnergy        2516040                       # Energy for write commands per rank (pJ) (Joule)
system.mem_ctrl.dram.rank0.refreshEnergy 47327280.000000                       # Energy for refresh commands per rank (pJ) (Joule)
system.mem_ctrl.dram.rank0.actBackEnergy     39776310                       # Energy for active background per rank (pJ) (Joule)
system.mem_ctrl.dram.rank0.preBackEnergy    196819680                       # Energy for precharge background per rank (pJ) (Joule)
system.mem_ctrl.dram.rank0.actPowerDownEnergy            0                       # Energy for active power-down per rank (pJ) (Joule)
system.mem_ctrl.dram.rank0.prePowerDownEnergy            0                       # Energy for precharge power-down per rank (pJ) (Joule)
system.mem_ctrl.dram.rank0.selfRefreshEnergy            0                       # Energy for self refresh per rank (pJ) (Joule)
system.mem_ctrl.dram.rank0.totalEnergy      290605965                       # Total energy per rank (pJ) (Joule)
system.mem_ctrl.dram.rank0.averagePower    484.520933                       # Core power per rank (mW) (Watt)
system.mem_ctrl.dram.rank0.totalIdleTime            0                       # Total Idle time Per DRAM Rank (Tick)
system.mem_ctrl.dram.rank0.pwrStateTime::IDLE    511324500                       # Time in different power states (Tick)
system.mem_ctrl.dram.rank0.pwrStateTime::REF     20020000                       # Time in different power states (Tick)
system.mem_ctrl.dram.rank0.pwrStateTime::SREF            0                       # Time in different power states (Tick)
system.mem_ctrl.dram.rank0.pwrStateTime::PRE_PDN            0                       # Time in different power states (Tick)
system.mem_ctrl.dram.rank0.pwrStateTime::ACT     68435500                       # Time in different power states (Tick)
system.mem_ctrl.dram.rank0.pwrStateTime::ACT_PDN            0                       # Time in different power states (Tick)
system.mem_ctrl.dram.rank1.actEnergy           635460                       # Energy for activate commands per rank (pJ) (Joule)
system.mem_ctrl.dram.rank1.preEnergy           314985                       # Energy for precharge commands per rank (pJ) (Joule)
system.mem_ctrl.dram.rank1.readEnergy         2042040                       # Energy for read commands per rank (pJ) (Joule)
system.mem_ctrl.dram.rank1.writeEnergy        1017900                       # Energy for write commands per rank (pJ) (Joule)
system.mem_ctrl.dram.rank1.refreshEnergy 47327280.000000                       # Energy for refresh commands per rank (pJ) (Joule)
system.mem_ctrl.dram.rank1.actBackEnergy     37414230                       # Energy for active background per rank (pJ) (Joule)
system.mem_ctrl.dram.rank1.preBackEnergy    198808800                       # Energy for precharge background per rank (pJ) (Joule)
system.mem_ctrl.dram.rank1.actPowerDownEnergy            0                       # Energy for active power-down per rank (pJ) (Joule)
system.mem_ctrl.dram.rank1.prePowerDownEnergy            0                       # Energy for precharge power-down per rank (pJ) (Joule)
system.mem_ctrl.dram.rank1.selfRefreshEnergy            0                       # Energy for self refresh per rank (pJ) (Joule)
system.mem_ctrl.dram.rank1.totalEnergy      287560695                       # Total energy per rank (pJ) (Joule)
system.mem_ctrl.dram.rank1.averagePower    479.443621                       # Core power per rank (mW) (Watt)
system.mem_ctrl.dram.rank1.totalIdleTime            0                       # Total Idle time Per DRAM Rank (Tick)
system.mem_ctrl.dram.rank1.pwrStateTime::IDLE    516463750                       # Time in different power states (Tick)
system.mem_ctrl.dram.rank1.pwrStateTime::REF     20020000                       # Time in different power states (Tick)
system.mem_ctrl.dram.rank1.pwrStateTime::SREF            0                       # Time in different power states (Tick)
system.mem_ctrl.dram.rank1.pwrStateTime::PRE_PDN            0                       # Time in different power states (Tick)
system.mem_ctrl.dram.rank1.pwrStateTime::ACT     63296250                       # Time in different power states (Tick)
system.mem_ctrl.dram.rank1.pwrStateTime::ACT_PDN            0                       # Time in different power states (Tick)
system.mem_ctrl.power_state.pwrStateResidencyTicks::UNDEFINED    599780000                       # Cumulative time (in ticks) in various power states (Tick)
system.workload.inst.arm                            0                       # number of arm instructions executed (Count)
system.workload.inst.quiesce                        0                       # number of quiesce instructions executed (Count)

---------- End Simulation Statistics   ----------
