
---------- Begin Simulation Statistics ----------
simSeconds                                   0.012017                       # Number of seconds simulated (Second)
simTicks                                  12017035000                       # Number of ticks simulated (Tick)
finalTick                                 21368140000                       # Number of ticks from beginning of simulation (restored from checkpoints and never reset) (Tick)
simFreq                                  1000000000000                       # The number of ticks per simulated second ((Tick/Second))
hostSeconds                                     33.22                       # Real time elapsed on the host (Second)
hostTickRate                                361776104                       # The number of ticks simulated per host second (ticks/s) ((Tick/Second))
hostMemory                                    9646224                       # Number of bytes of host memory used (Byte)
simInsts                                      6464554                       # Number of instructions simulated (Count)
simOps                                       12337784                       # Number of ops (including micro ops) simulated (Count)
hostInstRate                                   194616                       # Simulator instruction rate (inst/s) ((Count/Second))
hostOpRate                                     371430                       # Simulator op (including micro ops) rate (op/s) ((Count/Second))
system.caches.delayHistogram::bucket_size            8                       # delay histogram for all message (Unspecified)
system.caches.delayHistogram::max_bucket           79                       # delay histogram for all message (Unspecified)
system.caches.delayHistogram::samples          794814                       # delay histogram for all message (Unspecified)
system.caches.delayHistogram::mean           0.259983                       # delay histogram for all message (Unspecified)
system.caches.delayHistogram::stdev          1.463970                       # delay histogram for all message (Unspecified)
system.caches.delayHistogram             |      789774     99.37%     99.37% |        3581      0.45%     99.82% |         965      0.12%     99.94% |         359      0.05%     99.98% |          97      0.01%    100.00% |          29      0.00%    100.00% |           6      0.00%    100.00% |           3      0.00%    100.00% |           0      0.00%    100.00% |           0      0.00%    100.00% # delay histogram for all message (Unspecified)
system.caches.delayHistogram::total            794814                       # delay histogram for all message (Unspecified)
system.caches.m_outstandReqHistSeqr::bucket_size            1                       (Unspecified)
system.caches.m_outstandReqHistSeqr::max_bucket            9                       (Unspecified)
system.caches.m_outstandReqHistSeqr::samples      1048584                       (Unspecified)
system.caches.m_outstandReqHistSeqr::mean     1.000032                       (Unspecified)
system.caches.m_outstandReqHistSeqr::gmean     1.000022                       (Unspecified)
system.caches.m_outstandReqHistSeqr::stdev     0.006020                       (Unspecified)
system.caches.m_outstandReqHistSeqr      |           0      0.00%      0.00% |     1048552    100.00%    100.00% |          30      0.00%    100.00% |           2      0.00%    100.00% |           0      0.00%    100.00% |           0      0.00%    100.00% |           0      0.00%    100.00% |           0      0.00%    100.00% |           0      0.00%    100.00% |           0      0.00%    100.00% (Unspecified)
system.caches.m_outstandReqHistSeqr::total      1048584                       (Unspecified)
system.caches.m_latencyHistSeqr::bucket_size           64                       (Unspecified)
system.caches.m_latencyHistSeqr::max_bucket          639                       (Unspecified)
system.caches.m_latencyHistSeqr::samples      1048583                       (Unspecified)
system.caches.m_latencyHistSeqr::mean        9.460539                       (Unspecified)
system.caches.m_latencyHistSeqr::gmean       1.679263                       (Unspecified)
system.caches.m_latencyHistSeqr::stdev      26.755822                       (Unspecified)
system.caches.m_latencyHistSeqr          |     1032303     98.45%     98.45% |        6655      0.63%     99.08% |        3823      0.36%     99.45% |        4258      0.41%     99.85% |        1191      0.11%     99.97% |         279      0.03%     99.99% |           8      0.00%     99.99% |          42      0.00%    100.00% |          24      0.00%    100.00% |           0      0.00%    100.00% (Unspecified)
system.caches.m_latencyHistSeqr::total        1048583                       (Unspecified)
system.caches.m_hitLatencyHistSeqr::bucket_size            1                       (Unspecified)
system.caches.m_hitLatencyHistSeqr::max_bucket            9                       (Unspecified)
system.caches.m_hitLatencyHistSeqr::samples       917506                       (Unspecified)
system.caches.m_hitLatencyHistSeqr::mean            1                       (Unspecified)
system.caches.m_hitLatencyHistSeqr::gmean            1                       (Unspecified)
system.caches.m_hitLatencyHistSeqr       |           0      0.00%      0.00% |      917506    100.00%    100.00% |           0      0.00%    100.00% |           0      0.00%    100.00% |           0      0.00%    100.00% |           0      0.00%    100.00% |           0      0.00%    100.00% |           0      0.00%    100.00% |           0      0.00%    100.00% |           0      0.00%    100.00% (Unspecified)
system.caches.m_hitLatencyHistSeqr::total       917506                       (Unspecified)
system.caches.m_missLatencyHistSeqr::bucket_size           64                       (Unspecified)
system.caches.m_missLatencyHistSeqr::max_bucket          639                       (Unspecified)
system.caches.m_missLatencyHistSeqr::samples       131077                       (Unspecified)
system.caches.m_missLatencyHistSeqr::mean    68.682179                       (Unspecified)
system.caches.m_missLatencyHistSeqr::gmean    63.225492                       (Unspecified)
system.caches.m_missLatencyHistSeqr::stdev    41.455636                       (Unspecified)
system.caches.m_missLatencyHistSeqr      |      114797     87.58%     87.58% |        6655      5.08%     92.66% |        3823      2.92%     95.57% |        4258      3.25%     98.82% |        1191      0.91%     99.73% |         279      0.21%     99.94% |           8      0.01%     99.95% |          42      0.03%     99.98% |          24      0.02%    100.00% |           0      0.00%    100.00% (Unspecified)
system.caches.m_missLatencyHistSeqr::total       131077                       (Unspecified)
system.caches.delayVCHist.vnet_1::bucket_size            2                       # delay histogram for vnet_1 (Unspecified)
system.caches.delayVCHist.vnet_1::max_bucket           19                       # delay histogram for vnet_1 (Unspecified)
system.caches.delayVCHist.vnet_1::samples       397422                       # delay histogram for vnet_1 (Unspecified)
system.caches.delayVCHist.vnet_1::mean       0.055437                       # delay histogram for vnet_1 (Unspecified)
system.caches.delayVCHist.vnet_1::stdev      0.579284                       # delay histogram for vnet_1 (Unspecified)
system.caches.delayVCHist.vnet_1         |      392960     98.88%     98.88% |        1279      0.32%     99.20% |         975      0.25%     99.44% |        1157      0.29%     99.74% |        1002      0.25%     99.99% |          21      0.01%     99.99% |           9      0.00%    100.00% |           4      0.00%    100.00% |          14      0.00%    100.00% |           1      0.00%    100.00% # delay histogram for vnet_1 (Unspecified)
system.caches.delayVCHist.vnet_1::total        397422                       # delay histogram for vnet_1 (Unspecified)
system.caches.delayVCHist.vnet_2::bucket_size            8                       # delay histogram for vnet_2 (Unspecified)
system.caches.delayVCHist.vnet_2::max_bucket           79                       # delay histogram for vnet_2 (Unspecified)
system.caches.delayVCHist.vnet_2::samples       397392                       # delay histogram for vnet_2 (Unspecified)
system.caches.delayVCHist.vnet_2::mean       0.464544                       # delay histogram for vnet_2 (Unspecified)
system.caches.delayVCHist.vnet_2::stdev      1.966545                       # delay histogram for vnet_2 (Unspecified)
system.caches.delayVCHist.vnet_2         |      393403     99.00%     99.00% |        2545      0.64%     99.64% |         950      0.24%     99.88% |         359      0.09%     99.97% |          97      0.02%     99.99% |          29      0.01%    100.00% |           6      0.00%    100.00% |           3      0.00%    100.00% |           0      0.00%    100.00% |           0      0.00%    100.00% # delay histogram for vnet_2 (Unspecified)
system.caches.delayVCHist.vnet_2::total        397392                       # delay histogram for vnet_2 (Unspecified)
system.caches.L1Cache_Controller.Load         1510970      0.00%      0.00% (Unspecified)
system.caches.L1Cache_Controller.Ifetch        257665      0.00%      0.00% (Unspecified)
system.caches.L1Cache_Controller.Store         211607      0.00%      0.00% (Unspecified)
system.caches.L1Cache_Controller.Data          397422      0.00%      0.00% (Unspecified)
system.caches.L1Cache_Controller.Replacement       397392      0.00%      0.00% (Unspecified)
system.caches.L1Cache_Controller.Writeback_Ack       397392      0.00%      0.00% (Unspecified)
system.caches.L1Cache_Controller.I.Load        255963      0.00%      0.00% (Unspecified)
system.caches.L1Cache_Controller.I.Ifetch       109494      0.00%      0.00% (Unspecified)
system.caches.L1Cache_Controller.I.Store        31967      0.00%      0.00% (Unspecified)
system.caches.L1Cache_Controller.M.Load       1255007      0.00%      0.00% (Unspecified)
system.caches.L1Cache_Controller.M.Ifetch       148171      0.00%      0.00% (Unspecified)
system.caches.L1Cache_Controller.M.Store       179640      0.00%      0.00% (Unspecified)
system.caches.L1Cache_Controller.M.Replacement       397392      0.00%      0.00% (Unspecified)
system.caches.L1Cache_Controller.MI.Writeback_Ack       397392      0.00%      0.00% (Unspecified)
system.caches.L1Cache_Controller.IS.Data       365455      0.00%      0.00% (Unspecified)
system.caches.L1Cache_Controller.IM.Data        31967      0.00%      0.00% (Unspecified)
system.caches.Directory_Controller.GETX        397424      0.00%      0.00% (Unspecified)
system.caches.Directory_Controller.PUTX        397392      0.00%      0.00% (Unspecified)
system.caches.Directory_Controller.Memory_Data       397423      0.00%      0.00% (Unspecified)
system.caches.Directory_Controller.Memory_Ack       397392      0.00%      0.00% (Unspecified)
system.caches.Directory_Controller.I.GETX       397424      0.00%      0.00% (Unspecified)
system.caches.Directory_Controller.M.PUTX       397392      0.00%      0.00% (Unspecified)
system.caches.Directory_Controller.IM.Memory_Data       397423      0.00%      0.00% (Unspecified)
system.caches.Directory_Controller.MI.Memory_Ack       397392      0.00%      0.00% (Unspecified)
system.caches.MachineType.Directory.miss_mach_latency_hist_seqr::bucket_size           64                       (Unspecified)
system.caches.MachineType.Directory.miss_mach_latency_hist_seqr::max_bucket          639                       (Unspecified)
system.caches.MachineType.Directory.miss_mach_latency_hist_seqr::samples       131077                       (Unspecified)
system.caches.MachineType.Directory.miss_mach_latency_hist_seqr::mean    68.682179                       (Unspecified)
system.caches.MachineType.Directory.miss_mach_latency_hist_seqr::gmean    63.225492                       (Unspecified)
system.caches.MachineType.Directory.miss_mach_latency_hist_seqr::stdev    41.455636                       (Unspecified)
system.caches.MachineType.Directory.miss_mach_latency_hist_seqr |      114797     87.58%     87.58% |        6655      5.08%     92.66% |        3823      2.92%     95.57% |        4258      3.25%     98.82% |        1191      0.91%     99.73% |         279      0.21%     99.94% |           8      0.01%     99.95% |          42      0.03%     99.98% |          24      0.02%    100.00% |           0      0.00%    100.00% (Unspecified)
system.caches.MachineType.Directory.miss_mach_latency_hist_seqr::total       131077                       (Unspecified)
system.caches.MachineType.Directory.incomplete_times_seqr       397421                       (Unspecified)
system.caches.RequestType.LD.latency_hist_seqr::bucket_size           64                       (Unspecified)
system.caches.RequestType.LD.latency_hist_seqr::max_bucket          639                       (Unspecified)
system.caches.RequestType.LD.latency_hist_seqr::samples      1048576                       (Unspecified)
system.caches.RequestType.LD.latency_hist_seqr::mean     9.460261                       (Unspecified)
system.caches.RequestType.LD.latency_hist_seqr::gmean     1.679234                       (Unspecified)
system.caches.RequestType.LD.latency_hist_seqr::stdev    26.755564                       (Unspecified)
system.caches.RequestType.LD.latency_hist_seqr |     1032300     98.45%     98.45% |        6651      0.63%     99.08% |        3823      0.36%     99.45% |        4258      0.41%     99.85% |        1191      0.11%     99.97% |         279      0.03%     99.99% |           8      0.00%     99.99% |          42      0.00%    100.00% |          24      0.00%    100.00% |           0      0.00%    100.00% (Unspecified)
system.caches.RequestType.LD.latency_hist_seqr::total      1048576                       (Unspecified)
system.caches.RequestType.LD.hit_latency_hist_seqr::bucket_size            1                       (Unspecified)
system.caches.RequestType.LD.hit_latency_hist_seqr::max_bucket            9                       (Unspecified)
system.caches.RequestType.LD.hit_latency_hist_seqr::samples       917504                       (Unspecified)
system.caches.RequestType.LD.hit_latency_hist_seqr::mean            1                       (Unspecified)
system.caches.RequestType.LD.hit_latency_hist_seqr::gmean            1                       (Unspecified)
system.caches.RequestType.LD.hit_latency_hist_seqr |           0      0.00%      0.00% |      917504    100.00%    100.00% |           0      0.00%    100.00% |           0      0.00%    100.00% |           0      0.00%    100.00% |           0      0.00%    100.00% |           0      0.00%    100.00% |           0      0.00%    100.00% |           0      0.00%    100.00% |           0      0.00%    100.00% (Unspecified)
system.caches.RequestType.LD.hit_latency_hist_seqr::total       917504                       (Unspecified)
system.caches.RequestType.LD.miss_latency_hist_seqr::bucket_size           64                       (Unspecified)
system.caches.RequestType.LD.miss_latency_hist_seqr::max_bucket          639                       (Unspecified)
system.caches.RequestType.LD.miss_latency_hist_seqr::samples       131072                       (Unspecified)
system.caches.RequestType.LD.miss_latency_hist_seqr::mean    68.682091                       (Unspecified)
system.caches.RequestType.LD.miss_latency_hist_seqr::gmean    63.225231                       (Unspecified)
system.caches.RequestType.LD.miss_latency_hist_seqr::stdev    41.456388                       (Unspecified)
system.caches.RequestType.LD.miss_latency_hist_seqr |      114796     87.58%     87.58% |        6651      5.07%     92.66% |        3823      2.92%     95.57% |        4258      3.25%     98.82% |        1191      0.91%     99.73% |         279      0.21%     99.94% |           8      0.01%     99.95% |          42      0.03%     99.98% |          24      0.02%    100.00% |           0      0.00%    100.00% (Unspecified)
system.caches.RequestType.LD.miss_latency_hist_seqr::total       131072                       (Unspecified)
system.caches.RequestType.ST.latency_hist_seqr::bucket_size            8                       (Unspecified)
system.caches.RequestType.ST.latency_hist_seqr::max_bucket           79                       (Unspecified)
system.caches.RequestType.ST.latency_hist_seqr::samples            1                       (Unspecified)
system.caches.RequestType.ST.latency_hist_seqr::mean           71                       (Unspecified)
system.caches.RequestType.ST.latency_hist_seqr::gmean           71                       (Unspecified)
system.caches.RequestType.ST.latency_hist_seqr::stdev          nan                       (Unspecified)
system.caches.RequestType.ST.latency_hist_seqr |           0      0.00%      0.00% |           0      0.00%      0.00% |           0      0.00%      0.00% |           0      0.00%      0.00% |           0      0.00%      0.00% |           0      0.00%      0.00% |           0      0.00%      0.00% |           0      0.00%      0.00% |           1    100.00%    100.00% |           0      0.00%    100.00% (Unspecified)
system.caches.RequestType.ST.latency_hist_seqr::total            1                       (Unspecified)
system.caches.RequestType.ST.miss_latency_hist_seqr::bucket_size            8                       (Unspecified)
system.caches.RequestType.ST.miss_latency_hist_seqr::max_bucket           79                       (Unspecified)
system.caches.RequestType.ST.miss_latency_hist_seqr::samples            1                       (Unspecified)
system.caches.RequestType.ST.miss_latency_hist_seqr::mean           71                       (Unspecified)
system.caches.RequestType.ST.miss_latency_hist_seqr::gmean           71                       (Unspecified)
system.caches.RequestType.ST.miss_latency_hist_seqr::stdev          nan                       (Unspecified)
system.caches.RequestType.ST.miss_latency_hist_seqr |           0      0.00%      0.00% |           0      0.00%      0.00% |           0      0.00%      0.00% |           0      0.00%      0.00% |           0      0.00%      0.00% |           0      0.00%      0.00% |           0      0.00%      0.00% |           0      0.00%      0.00% |           1    100.00%    100.00% |           0      0.00%    100.00% (Unspecified)
system.caches.RequestType.ST.miss_latency_hist_seqr::total            1                       (Unspecified)
system.caches.RequestType.IFETCH.latency_hist_seqr::bucket_size           16                       (Unspecified)
system.caches.RequestType.IFETCH.latency_hist_seqr::max_bucket          159                       (Unspecified)
system.caches.RequestType.IFETCH.latency_hist_seqr::samples            6                       (Unspecified)
system.caches.RequestType.IFETCH.latency_hist_seqr::mean    47.666667                       (Unspecified)
system.caches.RequestType.IFETCH.latency_hist_seqr::gmean    17.033416                       (Unspecified)
system.caches.RequestType.IFETCH.latency_hist_seqr::stdev    37.216484                       (Unspecified)
system.caches.RequestType.IFETCH.latency_hist_seqr |           2     33.33%     33.33% |           0      0.00%     33.33% |           0      0.00%     33.33% |           1     16.67%     50.00% |           2     33.33%     83.33% |           1     16.67%    100.00% |           0      0.00%    100.00% |           0      0.00%    100.00% |           0      0.00%    100.00% |           0      0.00%    100.00% (Unspecified)
system.caches.RequestType.IFETCH.latency_hist_seqr::total            6                       (Unspecified)
system.caches.RequestType.IFETCH.hit_latency_hist_seqr::bucket_size            1                       (Unspecified)
system.caches.RequestType.IFETCH.hit_latency_hist_seqr::max_bucket            9                       (Unspecified)
system.caches.RequestType.IFETCH.hit_latency_hist_seqr::samples            2                       (Unspecified)
system.caches.RequestType.IFETCH.hit_latency_hist_seqr::mean            1                       (Unspecified)
system.caches.RequestType.IFETCH.hit_latency_hist_seqr::gmean            1                       (Unspecified)
system.caches.RequestType.IFETCH.hit_latency_hist_seqr |           0      0.00%      0.00% |           2    100.00%    100.00% |           0      0.00%    100.00% |           0      0.00%    100.00% |           0      0.00%    100.00% |           0      0.00%    100.00% |           0      0.00%    100.00% |           0      0.00%    100.00% |           0      0.00%    100.00% |           0      0.00%    100.00% (Unspecified)
system.caches.RequestType.IFETCH.hit_latency_hist_seqr::total            2                       (Unspecified)
system.caches.RequestType.IFETCH.miss_latency_hist_seqr::bucket_size           16                       (Unspecified)
system.caches.RequestType.IFETCH.miss_latency_hist_seqr::max_bucket          159                       (Unspecified)
system.caches.RequestType.IFETCH.miss_latency_hist_seqr::samples            4                       (Unspecified)
system.caches.RequestType.IFETCH.miss_latency_hist_seqr::mean           71                       (Unspecified)
system.caches.RequestType.IFETCH.miss_latency_hist_seqr::gmean    70.299562                       (Unspecified)
system.caches.RequestType.IFETCH.miss_latency_hist_seqr::stdev    11.430952                       (Unspecified)
system.caches.RequestType.IFETCH.miss_latency_hist_seqr |           0      0.00%      0.00% |           0      0.00%      0.00% |           0      0.00%      0.00% |           1     25.00%     25.00% |           2     50.00%     75.00% |           1     25.00%    100.00% |           0      0.00%    100.00% |           0      0.00%    100.00% |           0      0.00%    100.00% |           0      0.00%    100.00% (Unspecified)
system.caches.RequestType.IFETCH.miss_latency_hist_seqr::total            4                       (Unspecified)
system.caches.RequestTypeMachineType.LD.Directory.miss_type_mach_latency_hist_seqr::bucket_size           64                       (Unspecified)
system.caches.RequestTypeMachineType.LD.Directory.miss_type_mach_latency_hist_seqr::max_bucket          639                       (Unspecified)
system.caches.RequestTypeMachineType.LD.Directory.miss_type_mach_latency_hist_seqr::samples       131072                       (Unspecified)
system.caches.RequestTypeMachineType.LD.Directory.miss_type_mach_latency_hist_seqr::mean    68.682091                       (Unspecified)
system.caches.RequestTypeMachineType.LD.Directory.miss_type_mach_latency_hist_seqr::gmean    63.225231                       (Unspecified)
system.caches.RequestTypeMachineType.LD.Directory.miss_type_mach_latency_hist_seqr::stdev    41.456388                       (Unspecified)
system.caches.RequestTypeMachineType.LD.Directory.miss_type_mach_latency_hist_seqr |      114796     87.58%     87.58% |        6651      5.07%     92.66% |        3823      2.92%     95.57% |        4258      3.25%     98.82% |        1191      0.91%     99.73% |         279      0.21%     99.94% |           8      0.01%     99.95% |          42      0.03%     99.98% |          24      0.02%    100.00% |           0      0.00%    100.00% (Unspecified)
system.caches.RequestTypeMachineType.LD.Directory.miss_type_mach_latency_hist_seqr::total       131072                       (Unspecified)
system.caches.RequestTypeMachineType.ST.Directory.miss_type_mach_latency_hist_seqr::bucket_size            8                       (Unspecified)
system.caches.RequestTypeMachineType.ST.Directory.miss_type_mach_latency_hist_seqr::max_bucket           79                       (Unspecified)
system.caches.RequestTypeMachineType.ST.Directory.miss_type_mach_latency_hist_seqr::samples            1                       (Unspecified)
system.caches.RequestTypeMachineType.ST.Directory.miss_type_mach_latency_hist_seqr::mean           71                       (Unspecified)
system.caches.RequestTypeMachineType.ST.Directory.miss_type_mach_latency_hist_seqr::gmean           71                       (Unspecified)
system.caches.RequestTypeMachineType.ST.Directory.miss_type_mach_latency_hist_seqr::stdev          nan                       (Unspecified)
system.caches.RequestTypeMachineType.ST.Directory.miss_type_mach_latency_hist_seqr |           0      0.00%      0.00% |           0      0.00%      0.00% |           0      0.00%      0.00% |           0      0.00%      0.00% |           0      0.00%      0.00% |           0      0.00%      0.00% |           0      0.00%      0.00% |           0      0.00%      0.00% |           1    100.00%    100.00% |           0      0.00%    100.00% (Unspecified)
system.caches.RequestTypeMachineType.ST.Directory.miss_type_mach_latency_hist_seqr::total            1                       (Unspecified)
system.caches.RequestTypeMachineType.IFETCH.Directory.miss_type_mach_latency_hist_seqr::bucket_size           16                       (Unspecified)
system.caches.RequestTypeMachineType.IFETCH.Directory.miss_type_mach_latency_hist_seqr::max_bucket          159                       (Unspecified)
system.caches.RequestTypeMachineType.IFETCH.Directory.miss_type_mach_latency_hist_seqr::samples            4                       (Unspecified)
system.caches.RequestTypeMachineType.IFETCH.Directory.miss_type_mach_latency_hist_seqr::mean           71                       (Unspecified)
system.caches.RequestTypeMachineType.IFETCH.Directory.miss_type_mach_latency_hist_seqr::gmean    70.299562                       (Unspecified)
system.caches.RequestTypeMachineType.IFETCH.Directory.miss_type_mach_latency_hist_seqr::stdev    11.430952                       (Unspecified)
system.caches.RequestTypeMachineType.IFETCH.Directory.miss_type_mach_latency_hist_seqr |           0      0.00%      0.00% |           0      0.00%      0.00% |           0      0.00%      0.00% |           1     25.00%     25.00% |           2     50.00%     75.00% |           1     25.00%    100.00% |           0      0.00%    100.00% |           0      0.00%    100.00% |           0      0.00%    100.00% |           0      0.00%    100.00% (Unspecified)
system.caches.RequestTypeMachineType.IFETCH.Directory.miss_type_mach_latency_hist_seqr::total            4                       (Unspecified)
system.caches.controllers0.delayHistogram::samples       794814                       # delay_histogram (Unspecified)
system.caches.controllers0.delayHistogram::mean     0.259983                       # delay_histogram (Unspecified)
system.caches.controllers0.delayHistogram::stdev     1.463970                       # delay_histogram (Unspecified)
system.caches.controllers0.delayHistogram::0-7       789774     99.37%     99.37% # delay_histogram (Unspecified)
system.caches.controllers0.delayHistogram::8-15         3581      0.45%     99.82% # delay_histogram (Unspecified)
system.caches.controllers0.delayHistogram::16-23          965      0.12%     99.94% # delay_histogram (Unspecified)
system.caches.controllers0.delayHistogram::24-31          359      0.05%     99.98% # delay_histogram (Unspecified)
system.caches.controllers0.delayHistogram::32-39           97      0.01%    100.00% # delay_histogram (Unspecified)
system.caches.controllers0.delayHistogram::40-47           29      0.00%    100.00% # delay_histogram (Unspecified)
system.caches.controllers0.delayHistogram::48-55            6      0.00%    100.00% # delay_histogram (Unspecified)
system.caches.controllers0.delayHistogram::56-63            3      0.00%    100.00% # delay_histogram (Unspecified)
system.caches.controllers0.delayHistogram::total       794814                       # delay_histogram (Unspecified)
system.caches.controllers0.cacheMemory.m_demand_hits      1582818                       # Number of cache demand hits (Unspecified)
system.caches.controllers0.cacheMemory.m_demand_misses       397424                       # Number of cache demand misses (Unspecified)
system.caches.controllers0.cacheMemory.m_demand_accesses      1980242                       # Number of cache demand accesses (Unspecified)
system.caches.controllers0.forwardToCache.m_buf_msgs     0.018597                       # Average number of messages in buffer (Unspecified)
system.caches.controllers0.forwardToCache.m_stall_time  5112.356714                       # Average number of cycles messages are stalled in this MB (Unspecified)
system.caches.controllers0.mandatoryQueue.m_buf_msgs     0.141330                       # Average number of messages in buffer (Unspecified)
system.caches.controllers0.mandatoryQueue.m_stall_time  1192.920114                       # Average number of cycles messages are stalled in this MB (Unspecified)
system.caches.controllers0.power_state.pwrStateResidencyTicks::UNDEFINED  21368140000                       # Cumulative time (in ticks) in various power states (Tick)
system.caches.controllers0.requestFromCache.m_buf_msgs     0.074393                       # Average number of messages in buffer (Unspecified)
system.caches.controllers0.requestFromCache.m_stall_time  1999.999719                       # Average number of cycles messages are stalled in this MB (Unspecified)
system.caches.controllers0.responseToCache.m_buf_msgs     0.018599                       # Average number of messages in buffer (Unspecified)
system.caches.controllers0.responseToCache.m_stall_time  5015.283782                       # Average number of cycles messages are stalled in this MB (Unspecified)
system.caches.controllers1.forwardFromDir.m_buf_msgs     0.018597                       # Average number of messages in buffer (Unspecified)
system.caches.controllers1.forwardFromDir.m_stall_time   999.958817                       # Average number of cycles messages are stalled in this MB (Unspecified)
system.caches.controllers1.power_state.pwrStateResidencyTicks::UNDEFINED  21368140000                       # Cumulative time (in ticks) in various power states (Tick)
system.caches.controllers1.requestToDir.m_buf_msgs     0.037196                       # Average number of messages in buffer (Unspecified)
system.caches.controllers1.requestToDir.m_stall_time 10286.533877                       # Average number of cycles messages are stalled in this MB (Unspecified)
system.caches.controllers1.requestToMemory.m_buf_msgs     0.037273                       # Average number of messages in buffer (Unspecified)
system.caches.controllers1.requestToMemory.m_stall_time  1000.336201                       # Average number of cycles messages are stalled in this MB (Unspecified)
system.caches.controllers1.responseFromDir.m_buf_msgs     0.018599                       # Average number of messages in buffer (Unspecified)
system.caches.controllers1.responseFromDir.m_stall_time   999.996771                       # Average number of cycles messages are stalled in this MB (Unspecified)
system.caches.controllers1.responseFromMemory.m_buf_msgs     0.042720                       # Average number of messages in buffer (Unspecified)
system.caches.controllers1.responseFromMemory.m_stall_time   999.996818                       # Average number of cycles messages are stalled in this MB (Unspecified)
system.caches.network.msg_count.Control        794848                       (Unspecified)
system.caches.network.msg_byte.Control        6358784                       (Unspecified)
system.caches.network.msg_count.Data           794784                       (Unspecified)
system.caches.network.msg_byte.Data          57224448                       (Unspecified)
system.caches.network.msg_count.Response_Data       794846                       (Unspecified)
system.caches.network.msg_byte.Response_Data     57228912                       (Unspecified)
system.caches.network.msg_count.Writeback_Control       794784                       (Unspecified)
system.caches.network.msg_byte.Writeback_Control      6358272                       (Unspecified)
system.caches.network.int_link_buffers2.m_buf_msgs     0.021816                       # Average number of messages in buffer (Unspecified)
system.caches.network.int_link_buffers2.m_stall_time  7825.475752                       # Average number of cycles messages are stalled in this MB (Unspecified)
system.caches.network.int_link_buffers8.m_buf_msgs     0.010908                       # Average number of messages in buffer (Unspecified)
system.caches.network.int_link_buffers8.m_stall_time         3000                       # Average number of cycles messages are stalled in this MB (Unspecified)
system.caches.network.int_link_buffers9.m_buf_msgs     0.010908                       # Average number of messages in buffer (Unspecified)
system.caches.network.int_link_buffers9.m_stall_time         3000                       # Average number of cycles messages are stalled in this MB (Unspecified)
system.caches.network.power_state.pwrStateResidencyTicks::UNDEFINED  21368140000                       # Cumulative time (in ticks) in various power states (Tick)
system.caches.network.routers0.percent_links_utilized     5.453845                       (Unspecified)
system.caches.network.routers0.msg_count.Control::2       397424                       (Unspecified)
system.caches.network.routers0.msg_bytes.Control::2      3179392                       (Unspecified)
system.caches.network.routers0.msg_count.Data::2       397392                       (Unspecified)
system.caches.network.routers0.msg_bytes.Data::2     28612224                       (Unspecified)
system.caches.network.routers0.msg_count.Response_Data::4       397423                       (Unspecified)
system.caches.network.routers0.msg_bytes.Response_Data::4     28614456                       (Unspecified)
system.caches.network.routers0.msg_count.Writeback_Control::3       397392                       (Unspecified)
system.caches.network.routers0.msg_bytes.Writeback_Control::3      3179136                       (Unspecified)
system.caches.network.routers0.port_buffers3.m_buf_msgs     0.018597                       # Average number of messages in buffer (Unspecified)
system.caches.network.routers0.port_buffers3.m_stall_time  4112.398271                       # Average number of cycles messages are stalled in this MB (Unspecified)
system.caches.network.routers0.port_buffers4.m_buf_msgs     0.018599                       # Average number of messages in buffer (Unspecified)
system.caches.network.routers0.port_buffers4.m_stall_time  4015.287386                       # Average number of cycles messages are stalled in this MB (Unspecified)
system.caches.network.routers0.port_buffers7.m_buf_msgs     0.147083                       # Average number of messages in buffer (Unspecified)
system.caches.network.routers0.port_buffers7.m_stall_time  7286.535843                       # Average number of cycles messages are stalled in this MB (Unspecified)
system.caches.network.routers0.power_state.pwrStateResidencyTicks::UNDEFINED  21368140000                       # Cumulative time (in ticks) in various power states (Tick)
system.caches.network.routers0.throttle00.link_utilization     5.453816                       (Unspecified)
system.caches.network.routers0.throttle00.msg_count.Response_Data::4       397423                       (Unspecified)
system.caches.network.routers0.throttle00.msg_bytes.Response_Data::4     28614456                       (Unspecified)
system.caches.network.routers0.throttle00.msg_count.Writeback_Control::3       397392                       (Unspecified)
system.caches.network.routers0.throttle00.msg_bytes.Writeback_Control::3      3179136                       (Unspecified)
system.caches.network.routers0.throttle01.link_utilization     5.453874                       (Unspecified)
system.caches.network.routers0.throttle01.msg_count.Control::2       397424                       (Unspecified)
system.caches.network.routers0.throttle01.msg_bytes.Control::2      3179392                       (Unspecified)
system.caches.network.routers0.throttle01.msg_count.Data::2       397392                       (Unspecified)
system.caches.network.routers0.throttle01.msg_bytes.Data::2     28612224                       (Unspecified)
system.caches.network.routers1.percent_links_utilized     5.453858                       (Unspecified)
system.caches.network.routers1.msg_count.Control::2       397424                       (Unspecified)
system.caches.network.routers1.msg_bytes.Control::2      3179392                       (Unspecified)
system.caches.network.routers1.msg_count.Data::2       397392                       (Unspecified)
system.caches.network.routers1.msg_bytes.Data::2     28612224                       (Unspecified)
system.caches.network.routers1.msg_count.Response_Data::4       397423                       (Unspecified)
system.caches.network.routers1.msg_bytes.Response_Data::4     28614456                       (Unspecified)
system.caches.network.routers1.msg_count.Writeback_Control::3       397392                       (Unspecified)
system.caches.network.routers1.msg_bytes.Writeback_Control::3      3179136                       (Unspecified)
system.caches.network.routers1.port_buffers2.m_buf_msgs     0.037196                       # Average number of messages in buffer (Unspecified)
system.caches.network.routers1.port_buffers2.m_stall_time  9286.534626                       # Average number of cycles messages are stalled in this MB (Unspecified)
system.caches.network.routers1.port_buffers6.m_buf_msgs     0.022917                       # Average number of messages in buffer (Unspecified)
system.caches.network.routers1.port_buffers6.m_stall_time  2112.481105                       # Average number of cycles messages are stalled in this MB (Unspecified)
system.caches.network.routers1.port_buffers7.m_buf_msgs     0.019114                       # Average number of messages in buffer (Unspecified)
system.caches.network.routers1.port_buffers7.m_stall_time  2015.294312                       # Average number of cycles messages are stalled in this MB (Unspecified)
system.caches.network.routers1.power_state.pwrStateResidencyTicks::UNDEFINED  21368140000                       # Cumulative time (in ticks) in various power states (Tick)
system.caches.network.routers1.throttle00.link_utilization     5.453883                       (Unspecified)
system.caches.network.routers1.throttle00.msg_count.Control::2       397424                       (Unspecified)
system.caches.network.routers1.throttle00.msg_bytes.Control::2      3179392                       (Unspecified)
system.caches.network.routers1.throttle00.msg_count.Data::2       397392                       (Unspecified)
system.caches.network.routers1.throttle00.msg_bytes.Data::2     28612224                       (Unspecified)
system.caches.network.routers1.throttle01.link_utilization     5.453833                       (Unspecified)
system.caches.network.routers1.throttle01.msg_count.Response_Data::4       397423                       (Unspecified)
system.caches.network.routers1.throttle01.msg_bytes.Response_Data::4     28614456                       (Unspecified)
system.caches.network.routers1.throttle01.msg_count.Writeback_Control::3       397392                       (Unspecified)
system.caches.network.routers1.throttle01.msg_bytes.Writeback_Control::3      3179136                       (Unspecified)
system.caches.power_state.pwrStateResidencyTicks::UNDEFINED  21368140000                       # Cumulative time (in ticks) in various power states (Tick)
system.caches.sequencers.power_state.pwrStateResidencyTicks::UNDEFINED  21368140000                       # Cumulative time (in ticks) in various power states (Tick)
system.caches.sys_port_proxy.power_state.pwrStateResidencyTicks::UNDEFINED  21368140000                       # Cumulative time (in ticks) in various power states (Tick)
system.clk_domain.clock                          1000                       # Clock period in ticks (Tick)
system.clk_domain.voltage_domain.voltage            1                       # Voltage in Volts (Volt)
system.cpu.numCycles                         12017035                       # Number of cpu cycles simulated (Cycle)
system.cpu.numWorkItemsStarted                      0                       # Number of work items this cpu started (Count)
system.cpu.numWorkItemsCompleted                    0                       # Number of work items this cpu completed (Count)
system.cpu.instsAdded                         8388626                       # Number of instructions added to the IQ (excludes non-spec) (Count)
system.cpu.nonSpecInstsAdded                        1                       # Number of non-speculative instructions added to the IQ (Count)
system.cpu.instsIssued                        8388629                       # Number of instructions issued (Count)
system.cpu.squashedInstsExamined                    3                       # Number of squashed instructions iterated over during squash; mainly for profiling (Count)
system.cpu.numIssuedDist::samples            12016946                       # Number of insts issued each cycle (Count)
system.cpu.numIssuedDist::mean               0.698067                       # Number of insts issued each cycle (Count)
system.cpu.numIssuedDist::stdev              1.287570                       # Number of insts issued each cycle (Count)
system.cpu.numIssuedDist::underflows                0      0.00%      0.00% # Number of insts issued each cycle (Count)
system.cpu.numIssuedDist::0                   8390640     69.82%     69.82% # Number of insts issued each cycle (Count)
system.cpu.numIssuedDist::1                   1354407     11.27%     81.09% # Number of insts issued each cycle (Count)
system.cpu.numIssuedDist::2                    961178      8.00%     89.09% # Number of insts issued each cycle (Count)
system.cpu.numIssuedDist::3                    393208      3.27%     92.36% # Number of insts issued each cycle (Count)
system.cpu.numIssuedDist::4                    655347      5.45%     97.82% # Number of insts issued each cycle (Count)
system.cpu.numIssuedDist::5                    262142      2.18%    100.00% # Number of insts issued each cycle (Count)
system.cpu.numIssuedDist::6                        24      0.00%    100.00% # Number of insts issued each cycle (Count)
system.cpu.numIssuedDist::7                         0      0.00%    100.00% # Number of insts issued each cycle (Count)
system.cpu.numIssuedDist::8                         0      0.00%    100.00% # Number of insts issued each cycle (Count)
system.cpu.numIssuedDist::overflows                 0      0.00%    100.00% # Number of insts issued each cycle (Count)
system.cpu.numIssuedDist::min_value                 0                       # Number of insts issued each cycle (Count)
system.cpu.numIssuedDist::max_value                 6                       # Number of insts issued each cycle (Count)
system.cpu.numIssuedDist::total              12016946                       # Number of insts issued each cycle (Count)
system.cpu.statFuBusy::No_OpClass                   0      0.00%      0.00% # attempts to use FU when none available (Count)
system.cpu.statFuBusy::IntAlu                      23    100.00%    100.00% # attempts to use FU when none available (Count)
system.cpu.statFuBusy::IntMult                      0      0.00%    100.00% # attempts to use FU when none available (Count)
system.cpu.statFuBusy::IntDiv                       0      0.00%    100.00% # attempts to use FU when none available (Count)
system.cpu.statFuBusy::FloatAdd                     0      0.00%    100.00% # attempts to use FU when none available (Count)
system.cpu.statFuBusy::FloatCmp                     0      0.00%    100.00% # attempts to use FU when none available (Count)
system.cpu.statFuBusy::FloatCvt                     0      0.00%    100.00% # attempts to use FU when none available (Count)
system.cpu.statFuBusy::FloatMult                    0      0.00%    100.00% # attempts to use FU when none available (Count)
system.cpu.statFuBusy::FloatMultAcc                 0      0.00%    100.00% # attempts to use FU when none available (Count)
system.cpu.statFuBusy::FloatDiv                     0      0.00%    100.00% # attempts to use FU when none available (Count)
system.cpu.statFuBusy::FloatMisc                    0      0.00%    100.00% # attempts to use FU when none available (Count)
system.cpu.statFuBusy::FloatSqrt                    0      0.00%    100.00% # attempts to use FU when none available (Count)
system.cpu.statFuBusy::SimdAdd                      0      0.00%    100.00% # attempts to use FU when none available (Count)
system.cpu.statFuBusy::SimdAddAcc                   0      0.00%    100.00% # attempts to use FU when none available (Count)
system.cpu.statFuBusy::SimdAlu                      0      0.00%    100.00% # attempts to use FU when none available (Count)
system.cpu.statFuBusy::SimdCmp                      0      0.00%    100.00% # attempts to use FU when none available (Count)
system.cpu.statFuBusy::SimdCvt                      0      0.00%    100.00% # attempts to use FU when none available (Count)
system.cpu.statFuBusy::SimdMisc                     0      0.00%    100.00% # attempts to use FU when none available (Count)
system.cpu.statFuBusy::SimdMult                     0      0.00%    100.00% # attempts to use FU when none available (Count)
system.cpu.statFuBusy::SimdMultAcc                  0      0.00%    100.00% # attempts to use FU when none available (Count)
system.cpu.statFuBusy::SimdShift                    0      0.00%    100.00% # attempts to use FU when none available (Count)
system.cpu.statFuBusy::SimdShiftAcc                 0      0.00%    100.00% # attempts to use FU when none available (Count)
system.cpu.statFuBusy::SimdDiv                      0      0.00%    100.00% # attempts to use FU when none available (Count)
system.cpu.statFuBusy::SimdSqrt                     0      0.00%    100.00% # attempts to use FU when none available (Count)
system.cpu.statFuBusy::SimdFloatAdd                 0      0.00%    100.00% # attempts to use FU when none available (Count)
system.cpu.statFuBusy::SimdFloatAlu                 0      0.00%    100.00% # attempts to use FU when none available (Count)
system.cpu.statFuBusy::SimdFloatCmp                 0      0.00%    100.00% # attempts to use FU when none available (Count)
system.cpu.statFuBusy::SimdFloatCvt                 0      0.00%    100.00% # attempts to use FU when none available (Count)
system.cpu.statFuBusy::SimdFloatDiv                 0      0.00%    100.00% # attempts to use FU when none available (Count)
system.cpu.statFuBusy::SimdFloatMisc                0      0.00%    100.00% # attempts to use FU when none available (Count)
system.cpu.statFuBusy::SimdFloatMult                0      0.00%    100.00% # attempts to use FU when none available (Count)
system.cpu.statFuBusy::SimdFloatMultAcc             0      0.00%    100.00% # attempts to use FU when none available (Count)
system.cpu.statFuBusy::SimdFloatSqrt                0      0.00%    100.00% # attempts to use FU when none available (Count)
system.cpu.statFuBusy::SimdReduceAdd                0      0.00%    100.00% # attempts to use FU when none available (Count)
system.cpu.statFuBusy::SimdReduceAlu                0      0.00%    100.00% # attempts to use FU when none available (Count)
system.cpu.statFuBusy::SimdReduceCmp                0      0.00%    100.00% # attempts to use FU when none available (Count)
system.cpu.statFuBusy::SimdFloatReduceAdd            0      0.00%    100.00% # attempts to use FU when none available (Count)
system.cpu.statFuBusy::SimdFloatReduceCmp            0      0.00%    100.00% # attempts to use FU when none available (Count)
system.cpu.statFuBusy::SimdAes                      0      0.00%    100.00% # attempts to use FU when none available (Count)
system.cpu.statFuBusy::SimdAesMix                   0      0.00%    100.00% # attempts to use FU when none available (Count)
system.cpu.statFuBusy::SimdSha1Hash                 0      0.00%    100.00% # attempts to use FU when none available (Count)
system.cpu.statFuBusy::SimdSha1Hash2                0      0.00%    100.00% # attempts to use FU when none available (Count)
system.cpu.statFuBusy::SimdSha256Hash               0      0.00%    100.00% # attempts to use FU when none available (Count)
system.cpu.statFuBusy::SimdSha256Hash2              0      0.00%    100.00% # attempts to use FU when none available (Count)
system.cpu.statFuBusy::SimdShaSigma2                0      0.00%    100.00% # attempts to use FU when none available (Count)
system.cpu.statFuBusy::SimdShaSigma3                0      0.00%    100.00% # attempts to use FU when none available (Count)
system.cpu.statFuBusy::SimdPredAlu                  0      0.00%    100.00% # attempts to use FU when none available (Count)
system.cpu.statFuBusy::MemRead                      0      0.00%    100.00% # attempts to use FU when none available (Count)
system.cpu.statFuBusy::MemWrite                     0      0.00%    100.00% # attempts to use FU when none available (Count)
system.cpu.statFuBusy::FloatMemRead                 0      0.00%    100.00% # attempts to use FU when none available (Count)
system.cpu.statFuBusy::FloatMemWrite                0      0.00%    100.00% # attempts to use FU when none available (Count)
system.cpu.statFuBusy::IprAccess                    0      0.00%    100.00% # attempts to use FU when none available (Count)
system.cpu.statFuBusy::InstPrefetch                 0      0.00%    100.00% # attempts to use FU when none available (Count)
system.cpu.statIssuedInstType_0::No_OpClass            0      0.00%      0.00% # Number of instructions issued per FU type, per thread (Count)
system.cpu.statIssuedInstType_0::IntAlu       7340049     87.50%     87.50% # Number of instructions issued per FU type, per thread (Count)
system.cpu.statIssuedInstType_0::IntMult            0      0.00%     87.50% # Number of instructions issued per FU type, per thread (Count)
system.cpu.statIssuedInstType_0::IntDiv             0      0.00%     87.50% # Number of instructions issued per FU type, per thread (Count)
system.cpu.statIssuedInstType_0::FloatAdd            0      0.00%     87.50% # Number of instructions issued per FU type, per thread (Count)
system.cpu.statIssuedInstType_0::FloatCmp            0      0.00%     87.50% # Number of instructions issued per FU type, per thread (Count)
system.cpu.statIssuedInstType_0::FloatCvt            0      0.00%     87.50% # Number of instructions issued per FU type, per thread (Count)
system.cpu.statIssuedInstType_0::FloatMult            0      0.00%     87.50% # Number of instructions issued per FU type, per thread (Count)
system.cpu.statIssuedInstType_0::FloatMultAcc            0      0.00%     87.50% # Number of instructions issued per FU type, per thread (Count)
system.cpu.statIssuedInstType_0::FloatDiv            0      0.00%     87.50% # Number of instructions issued per FU type, per thread (Count)
system.cpu.statIssuedInstType_0::FloatMisc            0      0.00%     87.50% # Number of instructions issued per FU type, per thread (Count)
system.cpu.statIssuedInstType_0::FloatSqrt            0      0.00%     87.50% # Number of instructions issued per FU type, per thread (Count)
system.cpu.statIssuedInstType_0::SimdAdd            0      0.00%     87.50% # Number of instructions issued per FU type, per thread (Count)
system.cpu.statIssuedInstType_0::SimdAddAcc            0      0.00%     87.50% # Number of instructions issued per FU type, per thread (Count)
system.cpu.statIssuedInstType_0::SimdAlu            0      0.00%     87.50% # Number of instructions issued per FU type, per thread (Count)
system.cpu.statIssuedInstType_0::SimdCmp            0      0.00%     87.50% # Number of instructions issued per FU type, per thread (Count)
system.cpu.statIssuedInstType_0::SimdCvt            0      0.00%     87.50% # Number of instructions issued per FU type, per thread (Count)
system.cpu.statIssuedInstType_0::SimdMisc            0      0.00%     87.50% # Number of instructions issued per FU type, per thread (Count)
system.cpu.statIssuedInstType_0::SimdMult            0      0.00%     87.50% # Number of instructions issued per FU type, per thread (Count)
system.cpu.statIssuedInstType_0::SimdMultAcc            0      0.00%     87.50% # Number of instructions issued per FU type, per thread (Count)
system.cpu.statIssuedInstType_0::SimdShift            0      0.00%     87.50% # Number of instructions issued per FU type, per thread (Count)
system.cpu.statIssuedInstType_0::SimdShiftAcc            0      0.00%     87.50% # Number of instructions issued per FU type, per thread (Count)
system.cpu.statIssuedInstType_0::SimdDiv            0      0.00%     87.50% # Number of instructions issued per FU type, per thread (Count)
system.cpu.statIssuedInstType_0::SimdSqrt            0      0.00%     87.50% # Number of instructions issued per FU type, per thread (Count)
system.cpu.statIssuedInstType_0::SimdFloatAdd            0      0.00%     87.50% # Number of instructions issued per FU type, per thread (Count)
system.cpu.statIssuedInstType_0::SimdFloatAlu            0      0.00%     87.50% # Number of instructions issued per FU type, per thread (Count)
system.cpu.statIssuedInstType_0::SimdFloatCmp            0      0.00%     87.50% # Number of instructions issued per FU type, per thread (Count)
system.cpu.statIssuedInstType_0::SimdFloatCvt            0      0.00%     87.50% # Number of instructions issued per FU type, per thread (Count)
system.cpu.statIssuedInstType_0::SimdFloatDiv            0      0.00%     87.50% # Number of instructions issued per FU type, per thread (Count)
system.cpu.statIssuedInstType_0::SimdFloatMisc            0      0.00%     87.50% # Number of instructions issued per FU type, per thread (Count)
system.cpu.statIssuedInstType_0::SimdFloatMult            0      0.00%     87.50% # Number of instructions issued per FU type, per thread (Count)
system.cpu.statIssuedInstType_0::SimdFloatMultAcc            0      0.00%     87.50% # Number of instructions issued per FU type, per thread (Count)
system.cpu.statIssuedInstType_0::SimdFloatSqrt            0      0.00%     87.50% # Number of instructions issued per FU type, per thread (Count)
system.cpu.statIssuedInstType_0::SimdReduceAdd            0      0.00%     87.50% # Number of instructions issued per FU type, per thread (Count)
system.cpu.statIssuedInstType_0::SimdReduceAlu            0      0.00%     87.50% # Number of instructions issued per FU type, per thread (Count)
system.cpu.statIssuedInstType_0::SimdReduceCmp            0      0.00%     87.50% # Number of instructions issued per FU type, per thread (Count)
system.cpu.statIssuedInstType_0::SimdFloatReduceAdd            0      0.00%     87.50% # Number of instructions issued per FU type, per thread (Count)
system.cpu.statIssuedInstType_0::SimdFloatReduceCmp            0      0.00%     87.50% # Number of instructions issued per FU type, per thread (Count)
system.cpu.statIssuedInstType_0::SimdAes            0      0.00%     87.50% # Number of instructions issued per FU type, per thread (Count)
system.cpu.statIssuedInstType_0::SimdAesMix            0      0.00%     87.50% # Number of instructions issued per FU type, per thread (Count)
system.cpu.statIssuedInstType_0::SimdSha1Hash            0      0.00%     87.50% # Number of instructions issued per FU type, per thread (Count)
system.cpu.statIssuedInstType_0::SimdSha1Hash2            0      0.00%     87.50% # Number of instructions issued per FU type, per thread (Count)
system.cpu.statIssuedInstType_0::SimdSha256Hash            0      0.00%     87.50% # Number of instructions issued per FU type, per thread (Count)
system.cpu.statIssuedInstType_0::SimdSha256Hash2            0      0.00%     87.50% # Number of instructions issued per FU type, per thread (Count)
system.cpu.statIssuedInstType_0::SimdShaSigma2            0      0.00%     87.50% # Number of instructions issued per FU type, per thread (Count)
system.cpu.statIssuedInstType_0::SimdShaSigma3            0      0.00%     87.50% # Number of instructions issued per FU type, per thread (Count)
system.cpu.statIssuedInstType_0::SimdPredAlu            0      0.00%     87.50% # Number of instructions issued per FU type, per thread (Count)
system.cpu.statIssuedInstType_0::MemRead      1048577     12.50%    100.00% # Number of instructions issued per FU type, per thread (Count)
system.cpu.statIssuedInstType_0::MemWrite            3      0.00%    100.00% # Number of instructions issued per FU type, per thread (Count)
system.cpu.statIssuedInstType_0::FloatMemRead            0      0.00%    100.00% # Number of instructions issued per FU type, per thread (Count)
system.cpu.statIssuedInstType_0::FloatMemWrite            0      0.00%    100.00% # Number of instructions issued per FU type, per thread (Count)
system.cpu.statIssuedInstType_0::IprAccess            0      0.00%    100.00% # Number of instructions issued per FU type, per thread (Count)
system.cpu.statIssuedInstType_0::InstPrefetch            0      0.00%    100.00% # Number of instructions issued per FU type, per thread (Count)
system.cpu.statIssuedInstType_0::total        8388629                       # Number of instructions issued per FU type, per thread (Count)
system.cpu.issueRate                         0.698061                       # Inst issue rate ((Count/Cycle))
system.cpu.fuBusy                                  23                       # FU busy when requested (Count)
system.cpu.fuBusyRate                        0.000003                       # FU busy rate (busy events/executed inst) ((Count/Count))
system.cpu.intInstQueueReads                 28794234                       # Number of integer instruction queue reads (Count)
system.cpu.intInstQueueWrites                 8388630                       # Number of integer instruction queue writes (Count)
system.cpu.intInstQueueWakeupAccesses         8388635                       # Number of integer instruction queue wakeup accesses (Count)
system.cpu.fpInstQueueReads                         0                       # Number of floating instruction queue reads (Count)
system.cpu.fpInstQueueWrites                        0                       # Number of floating instruction queue writes (Count)
system.cpu.fpInstQueueWakeupAccesses                0                       # Number of floating instruction queue wakeup accesses (Count)
system.cpu.vecInstQueueReads                        0                       # Number of vector instruction queue reads (Count)
system.cpu.vecInstQueueWrites                       0                       # Number of vector instruction queue writes (Count)
system.cpu.vecInstQueueWakeupAccesses               0                       # Number of vector instruction queue wakeup accesses (Count)
system.cpu.intAluAccesses                     8388652                       # Number of integer alu accesses (Count)
system.cpu.fpAluAccesses                            0                       # Number of floating point alu accesses (Count)
system.cpu.vecAluAccesses                           0                       # Number of vector alu accesses (Count)
system.cpu.idleCycles                               0                       # Number of cycles IEW is idle (Cycle)
system.cpu.squashCycles                             2                       # Number of cycles IEW is squashing (Cycle)
system.cpu.blockCycles                              0                       # Number of cycles IEW is blocking (Cycle)
system.cpu.unblockCycles                            0                       # Number of cycles IEW is unblocking (Cycle)
system.cpu.dispatchedInsts                    8388627                       # Number of instructions dispatched to IQ (Count)
system.cpu.dispSquashedInsts                        0                       # Number of squashed instructions skipped by dispatch (Count)
system.cpu.dispLoadInsts                      1048577                       # Number of dispatched load instructions (Count)
system.cpu.dispStoreInsts                           3                       # Number of dispatched store instructions (Count)
system.cpu.dispNonSpecInsts                         1                       # Number of dispatched non-speculative instructions (Count)
system.cpu.iqFullEvents                             0                       # Number of times the IQ has become full, causing a stall (Count)
system.cpu.lsqFullEvents                            0                       # Number of times the LSQ has become full, causing a stall (Count)
system.cpu.memOrderViolationEvents                  0                       # Number of memory order violations (Count)
system.cpu.predictedTakenIncorrect                  1                       # Number of branches that were predicted taken incorrectly (Count)
system.cpu.predictedNotTakenIncorrect               1                       # Number of branches that were predicted not taken incorrectly (Count)
system.cpu.branchMispredicts                        2                       # Number of branch mispredicts detected at execute (Count)
system.cpu.numInsts                           8388636                       # Number of executed instructions (Count)
system.cpu.numLoadInsts                       1048578                       # Number of load instructions executed (Count)
system.cpu.numSquashedInsts                         0                       # Number of squashed instructions skipped in execute (Count)
system.cpu.numSwp                                   0                       # Number of swp insts executed (Count)
system.cpu.numNop                                   0                       # Number of nop insts executed (Count)
system.cpu.numRefs                            1048581                       # Number of memory reference insts executed (Count)
system.cpu.numBranches                        1048582                       # Number of branches executed (Count)
system.cpu.numStoreInsts                            3                       # Number of stores executed (Count)
system.cpu.numRate                           0.698062                       # Inst execution rate ((Count/Cycle))
system.cpu.instsToCommit                      8388635                       # Cumulative count of insts sent to commit (Count)
system.cpu.writebackCount                     8388635                       # Cumulative count of insts written-back (Count)
system.cpu.producerInst                       7165281                       # Number of instructions producing a value (Count)
system.cpu.consumerInst                       8519711                       # Number of instructions consuming a value (Count)
system.cpu.wbRate                            0.698062                       # Insts written-back per cycle ((Count/Cycle))
system.cpu.wbFanout                          0.841024                       # Average fanout of values written-back ((Count/Count))
system.cpu.timesIdled                               4                       # Number of times that the entire CPU went into an idle state and unscheduled itself (Count)
system.cpu.idleCycles                              89                       # Total number of cycles that the CPU has spent unscheduled due to idling (Cycle)
system.cpu.committedInsts                     4194313                       # Number of Instructions Simulated (Count)
system.cpu.committedOps                       8388625                       # Number of Ops (including micro ops) Simulated (Count)
system.cpu.cpi                               2.865078                       # CPI: Cycles Per Instruction ((Cycle/Count))
system.cpu.totalCpi                          2.865078                       # CPI: Total CPI of All Threads ((Cycle/Count))
system.cpu.ipc                               0.349031                       # IPC: Instructions Per Cycle ((Count/Cycle))
system.cpu.totalIpc                          0.349031                       # IPC: Total IPC of All Threads ((Count/Cycle))
system.cpu.intRegfileReads                    8388645                       # Number of integer regfile reads (Count)
system.cpu.intRegfileWrites                   7340049                       # Number of integer regfile writes (Count)
system.cpu.ccRegfileReads                     5242888                       # number of cc regfile reads (Count)
system.cpu.ccRegfileWrites                    4194312                       # number of cc regfile writes (Count)
system.cpu.miscRegfileReads                   3145743                       # number of misc regfile reads (Count)
system.cpu.MemDepUnit__0.insertedLoads        1048577                       # Number of loads inserted to the mem dependence unit. (Count)
system.cpu.MemDepUnit__0.insertedStores             3                       # Number of stores inserted to the mem dependence unit. (Count)
system.cpu.MemDepUnit__0.conflictingLoads            0                       # Number of conflicting loads. (Count)
system.cpu.MemDepUnit__0.conflictingStores            0                       # Number of conflicting stores. (Count)
system.cpu.MemDepUnit__1.insertedLoads              0                       # Number of loads inserted to the mem dependence unit. (Count)
system.cpu.MemDepUnit__1.insertedStores             0                       # Number of stores inserted to the mem dependence unit. (Count)
system.cpu.MemDepUnit__1.conflictingLoads            0                       # Number of conflicting loads. (Count)
system.cpu.MemDepUnit__1.conflictingStores            0                       # Number of conflicting stores. (Count)
system.cpu.MemDepUnit__2.insertedLoads              0                       # Number of loads inserted to the mem dependence unit. (Count)
system.cpu.MemDepUnit__2.insertedStores             0                       # Number of stores inserted to the mem dependence unit. (Count)
system.cpu.MemDepUnit__2.conflictingLoads            0                       # Number of conflicting loads. (Count)
system.cpu.MemDepUnit__2.conflictingStores            0                       # Number of conflicting stores. (Count)
system.cpu.MemDepUnit__3.insertedLoads              0                       # Number of loads inserted to the mem dependence unit. (Count)
system.cpu.MemDepUnit__3.insertedStores             0                       # Number of stores inserted to the mem dependence unit. (Count)
system.cpu.MemDepUnit__3.conflictingLoads            0                       # Number of conflicting loads. (Count)
system.cpu.MemDepUnit__3.conflictingStores            0                       # Number of conflicting stores. (Count)
system.cpu.branchPred.lookups                 1048587                       # Number of BP lookups (Count)
system.cpu.branchPred.condPredicted           1048581                       # Number of conditional branches predicted (Count)
system.cpu.branchPred.condIncorrect                 4                       # Number of conditional branches incorrect (Count)
system.cpu.branchPred.BTBLookups              1048585                       # Number of BTB lookups (Count)
system.cpu.branchPred.BTBHits                 1048582                       # Number of BTB hits (Count)
system.cpu.branchPred.BTBHitRatio            0.999997                       # BTB Hit Ratio (Ratio)
system.cpu.branchPred.RASUsed                       1                       # Number of times the RAS was used to get a target. (Count)
system.cpu.branchPred.RASIncorrect                  0                       # Number of incorrect RAS predictions. (Count)
system.cpu.branchPred.indirectLookups               1                       # Number of indirect predictor lookups. (Count)
system.cpu.branchPred.indirectHits                  0                       # Number of indirect target hits. (Count)
system.cpu.branchPred.indirectMisses                1                       # Number of indirect misses. (Count)
system.cpu.branchPred.indirectMispredicted            0                       # Number of mispredicted indirect branches. (Count)
system.cpu.commit.commitSquashedInsts               3                       # The number of squashed insts skipped by commit (Count)
system.cpu.commit.commitNonSpecStalls               1                       # The number of times commit has been forced to stall to communicate backwards (Count)
system.cpu.commit.branchMispredicts                 2                       # The number of times a branch was mispredicted (Count)
system.cpu.commit.numCommittedDist::samples     12016944                       # Number of insts commited each cycle (Count)
system.cpu.commit.numCommittedDist::mean     0.698066                       # Number of insts commited each cycle (Count)
system.cpu.commit.numCommittedDist::stdev     2.257705                       # Number of insts commited each cycle (Count)
system.cpu.commit.numCommittedDist::underflows            0      0.00%      0.00% # Number of insts commited each cycle (Count)
system.cpu.commit.numCommittedDist::0        10968364     91.27%     91.27% # Number of insts commited each cycle (Count)
system.cpu.commit.numCommittedDist::1               1      0.00%     91.27% # Number of insts commited each cycle (Count)
system.cpu.commit.numCommittedDist::2               0      0.00%     91.27% # Number of insts commited each cycle (Count)
system.cpu.commit.numCommittedDist::3               1      0.00%     91.27% # Number of insts commited each cycle (Count)
system.cpu.commit.numCommittedDist::4               0      0.00%     91.27% # Number of insts commited each cycle (Count)
system.cpu.commit.numCommittedDist::5               1      0.00%     91.27% # Number of insts commited each cycle (Count)
system.cpu.commit.numCommittedDist::6               0      0.00%     91.27% # Number of insts commited each cycle (Count)
system.cpu.commit.numCommittedDist::7               0      0.00%     91.27% # Number of insts commited each cycle (Count)
system.cpu.commit.numCommittedDist::8         1048577      8.73%    100.00% # Number of insts commited each cycle (Count)
system.cpu.commit.numCommittedDist::overflows            0      0.00%    100.00% # Number of insts commited each cycle (Count)
system.cpu.commit.numCommittedDist::min_value            0                       # Number of insts commited each cycle (Count)
system.cpu.commit.numCommittedDist::max_value            8                       # Number of insts commited each cycle (Count)
system.cpu.commit.numCommittedDist::total     12016944                       # Number of insts commited each cycle (Count)
system.cpu.commit.instsCommitted              4194313                       # Number of instructions committed (Count)
system.cpu.commit.opsCommitted                8388625                       # Number of ops (including micro ops) committed (Count)
system.cpu.commit.memRefs                     1048578                       # Number of memory references committed (Count)
system.cpu.commit.loads                       1048577                       # Number of loads committed (Count)
system.cpu.commit.amos                              0                       # Number of atomic instructions committed (Count)
system.cpu.commit.membars                           0                       # Number of memory barriers committed (Count)
system.cpu.commit.branches                    1048579                       # Number of branches committed (Count)
system.cpu.commit.vectorInstructions                0                       # Number of committed Vector instructions. (Count)
system.cpu.commit.floating                          0                       # Number of committed floating point instructions. (Count)
system.cpu.commit.integer                     8388623                       # Number of committed integer instructions. (Count)
system.cpu.commit.functionCalls                     1                       # Number of function calls committed. (Count)
system.cpu.commit.committedInstType_0::No_OpClass            1      0.00%      0.00% # Class of committed instruction (Count)
system.cpu.commit.committedInstType_0::IntAlu      7340046     87.50%     87.50% # Class of committed instruction (Count)
system.cpu.commit.committedInstType_0::IntMult            0      0.00%     87.50% # Class of committed instruction (Count)
system.cpu.commit.committedInstType_0::IntDiv            0      0.00%     87.50% # Class of committed instruction (Count)
system.cpu.commit.committedInstType_0::FloatAdd            0      0.00%     87.50% # Class of committed instruction (Count)
system.cpu.commit.committedInstType_0::FloatCmp            0      0.00%     87.50% # Class of committed instruction (Count)
system.cpu.commit.committedInstType_0::FloatCvt            0      0.00%     87.50% # Class of committed instruction (Count)
system.cpu.commit.committedInstType_0::FloatMult            0      0.00%     87.50% # Class of committed instruction (Count)
system.cpu.commit.committedInstType_0::FloatMultAcc            0      0.00%     87.50% # Class of committed instruction (Count)
system.cpu.commit.committedInstType_0::FloatDiv            0      0.00%     87.50% # Class of committed instruction (Count)
system.cpu.commit.committedInstType_0::FloatMisc            0      0.00%     87.50% # Class of committed instruction (Count)
system.cpu.commit.committedInstType_0::FloatSqrt            0      0.00%     87.50% # Class of committed instruction (Count)
system.cpu.commit.committedInstType_0::SimdAdd            0      0.00%     87.50% # Class of committed instruction (Count)
system.cpu.commit.committedInstType_0::SimdAddAcc            0      0.00%     87.50% # Class of committed instruction (Count)
system.cpu.commit.committedInstType_0::SimdAlu            0      0.00%     87.50% # Class of committed instruction (Count)
system.cpu.commit.committedInstType_0::SimdCmp            0      0.00%     87.50% # Class of committed instruction (Count)
system.cpu.commit.committedInstType_0::SimdCvt            0      0.00%     87.50% # Class of committed instruction (Count)
system.cpu.commit.committedInstType_0::SimdMisc            0      0.00%     87.50% # Class of committed instruction (Count)
system.cpu.commit.committedInstType_0::SimdMult            0      0.00%     87.50% # Class of committed instruction (Count)
system.cpu.commit.committedInstType_0::SimdMultAcc            0      0.00%     87.50% # Class of committed instruction (Count)
system.cpu.commit.committedInstType_0::SimdShift            0      0.00%     87.50% # Class of committed instruction (Count)
system.cpu.commit.committedInstType_0::SimdShiftAcc            0      0.00%     87.50% # Class of committed instruction (Count)
system.cpu.commit.committedInstType_0::SimdDiv            0      0.00%     87.50% # Class of committed instruction (Count)
system.cpu.commit.committedInstType_0::SimdSqrt            0      0.00%     87.50% # Class of committed instruction (Count)
system.cpu.commit.committedInstType_0::SimdFloatAdd            0      0.00%     87.50% # Class of committed instruction (Count)
system.cpu.commit.committedInstType_0::SimdFloatAlu            0      0.00%     87.50% # Class of committed instruction (Count)
system.cpu.commit.committedInstType_0::SimdFloatCmp            0      0.00%     87.50% # Class of committed instruction (Count)
system.cpu.commit.committedInstType_0::SimdFloatCvt            0      0.00%     87.50% # Class of committed instruction (Count)
system.cpu.commit.committedInstType_0::SimdFloatDiv            0      0.00%     87.50% # Class of committed instruction (Count)
system.cpu.commit.committedInstType_0::SimdFloatMisc            0      0.00%     87.50% # Class of committed instruction (Count)
system.cpu.commit.committedInstType_0::SimdFloatMult            0      0.00%     87.50% # Class of committed instruction (Count)
system.cpu.commit.committedInstType_0::SimdFloatMultAcc            0      0.00%     87.50% # Class of committed instruction (Count)
system.cpu.commit.committedInstType_0::SimdFloatSqrt            0      0.00%     87.50% # Class of committed instruction (Count)
system.cpu.commit.committedInstType_0::SimdReduceAdd            0      0.00%     87.50% # Class of committed instruction (Count)
system.cpu.commit.committedInstType_0::SimdReduceAlu            0      0.00%     87.50% # Class of committed instruction (Count)
system.cpu.commit.committedInstType_0::SimdReduceCmp            0      0.00%     87.50% # Class of committed instruction (Count)
system.cpu.commit.committedInstType_0::SimdFloatReduceAdd            0      0.00%     87.50% # Class of committed instruction (Count)
system.cpu.commit.committedInstType_0::SimdFloatReduceCmp            0      0.00%     87.50% # Class of committed instruction (Count)
system.cpu.commit.committedInstType_0::SimdAes            0      0.00%     87.50% # Class of committed instruction (Count)
system.cpu.commit.committedInstType_0::SimdAesMix            0      0.00%     87.50% # Class of committed instruction (Count)
system.cpu.commit.committedInstType_0::SimdSha1Hash            0      0.00%     87.50% # Class of committed instruction (Count)
system.cpu.commit.committedInstType_0::SimdSha1Hash2            0      0.00%     87.50% # Class of committed instruction (Count)
system.cpu.commit.committedInstType_0::SimdSha256Hash            0      0.00%     87.50% # Class of committed instruction (Count)
system.cpu.commit.committedInstType_0::SimdSha256Hash2            0      0.00%     87.50% # Class of committed instruction (Count)
system.cpu.commit.committedInstType_0::SimdShaSigma2            0      0.00%     87.50% # Class of committed instruction (Count)
system.cpu.commit.committedInstType_0::SimdShaSigma3            0      0.00%     87.50% # Class of committed instruction (Count)
system.cpu.commit.committedInstType_0::SimdPredAlu            0      0.00%     87.50% # Class of committed instruction (Count)
system.cpu.commit.committedInstType_0::MemRead      1048577     12.50%    100.00% # Class of committed instruction (Count)
system.cpu.commit.committedInstType_0::MemWrite            1      0.00%    100.00% # Class of committed instruction (Count)
system.cpu.commit.committedInstType_0::FloatMemRead            0      0.00%    100.00% # Class of committed instruction (Count)
system.cpu.commit.committedInstType_0::FloatMemWrite            0      0.00%    100.00% # Class of committed instruction (Count)
system.cpu.commit.committedInstType_0::IprAccess            0      0.00%    100.00% # Class of committed instruction (Count)
system.cpu.commit.committedInstType_0::InstPrefetch            0      0.00%    100.00% # Class of committed instruction (Count)
system.cpu.commit.committedInstType_0::total      8388625                       # Class of committed instruction (Count)
system.cpu.commit.commitEligibleSamples       1048577                       # number cycles where commit BW limit reached (Cycle)
system.cpu.decode.idleCycles                   349721                       # Number of cycles decode is idle (Cycle)
system.cpu.decode.blockedCycles              10618639                       # Number of cycles decode is blocked (Cycle)
system.cpu.decode.runCycles                        30                       # Number of cycles decode is running (Cycle)
system.cpu.decode.unblockCycles               1048554                       # Number of cycles decode is unblocking (Cycle)
system.cpu.decode.squashCycles                      2                       # Number of cycles decode is squashing (Cycle)
system.cpu.decode.branchResolved              1048579                       # Number of times decode resolved a branch (Count)
[...]
system.mem_ctrl.rdPerTurnAround::16             65022     98.89%     99.15% # Reads before turning the bus around for writes (Count)
system.mem_ctrl.rdPerTurnAround::17               543      0.83%     99.97% # Reads before turning the bus around for writes (Count)
system.mem_ctrl.rdPerTurnAround::18                10      0.02%     99.99% # Reads before turning the bus around for writes (Count)
system.mem_ctrl.rdPerTurnAround::19                 4      0.01%     99.99% # Reads before turning the bus around for writes (Count)
system.mem_ctrl.rdPerTurnAround::20                 2      0.00%    100.00% # Reads before turning the bus around for writes (Count)
system.mem_ctrl.rdPerTurnAround::22                 1      0.00%    100.00% # Reads before turning the bus around for writes (Count)
system.mem_ctrl.rdPerTurnAround::24                 1      0.00%    100.00% # Reads before turning the bus around for writes (Count)
system.mem_ctrl.rdPerTurnAround::total          65750                       # Reads before turning the bus around for writes (Count)
system.mem_ctrl.wrPerTurnAround::samples        65750                       # Writes before turning the bus around for reads (Count)
system.mem_ctrl.wrPerTurnAround::mean       16.008259                       # Writes before turning the bus around for reads (Count)
system.mem_ctrl.wrPerTurnAround::gmean      16.008005                       # Writes before turning the bus around for reads (Count)
system.mem_ctrl.wrPerTurnAround::stdev       0.092166                       # Writes before turning the bus around for reads (Count)
system.mem_ctrl.wrPerTurnAround::16             65213     99.18%     99.18% # Writes before turning the bus around for reads (Count)
system.mem_ctrl.wrPerTurnAround::17               534      0.81%    100.00% # Writes before turning the bus around for reads (Count)
system.mem_ctrl.wrPerTurnAround::18                 1      0.00%    100.00% # Writes before turning the bus around for reads (Count)
system.mem_ctrl.wrPerTurnAround::19                 1      0.00%    100.00% # Writes before turning the bus around for reads (Count)
system.mem_ctrl.wrPerTurnAround::20                 1      0.00%    100.00% # Writes before turning the bus around for reads (Count)
system.mem_ctrl.wrPerTurnAround::total          65750                       # Writes before turning the bus around for reads (Count)
system.mem_ctrl.bytesReadWrQ                    62848                       # Total number of bytes read from write queue (Byte)
system.mem_ctrl.bytesReadSys                 67393344                       # Total read bytes from the system interface side (Byte)
system.mem_ctrl.bytesWrittenSys              67393344                       # Total written bytes from the system interface side (Byte)
system.mem_ctrl.avgRdBWSys               937433279.52528358                       # Average system read bandwidth in Byte/s ((Byte/Second))
system.mem_ctrl.avgWrBWSys               937433279.52528358                       # Average system write bandwidth in Byte/s ((Byte/Second))
system.mem_ctrl.totGap                    71891365000                       # Total gap between requests (Tick)
system.mem_ctrl.avgGap                       34135.77                       # Average gap between requests ((Tick/Count))
system.mem_ctrl.requestorReadBytes::caches.controllers1     67330496                       # Per-requestor bytes read from memory (Byte)
system.mem_ctrl.requestorWriteBytes::caches.controllers1     67362752                       # Per-requestor bytes write to memory (Byte)
system.mem_ctrl.requestorReadRate::caches.controllers1 936559071.432098507881                       # Per-requestor bytes read from memory rate ((Byte/Second))
system.mem_ctrl.requestorWriteRate::caches.controllers1 937007748.498254537582                       # Per-requestor bytes write to memory rate ((Byte/Second))
system.mem_ctrl.requestorReadAccesses::caches.controllers1      1053021                       # Per-requestor read serviced memory accesses (Count)
system.mem_ctrl.requestorWriteAccesses::caches.controllers1      1053021                       # Per-requestor write serviced memory accesses (Count)
system.mem_ctrl.requestorReadTotalLat::caches.controllers1  29662495750                       # Per-requestor read total memory access latency (Tick)
system.mem_ctrl.requestorWriteTotalLat::caches.controllers1 1773895287000                       # Per-requestor write total memory access latency (Tick)
system.mem_ctrl.requestorReadAvgLat::caches.controllers1     28168.95                       # Per-requestor read average memory access latency ((Tick/Count))
system.mem_ctrl.requestorWriteAvgLat::caches.controllers1   1684577.31                       # Per-requestor write average memory access latency ((Tick/Count))
system.mem_ctrl.dram.bytesRead::caches.controllers1     67393280                       # Number of bytes read from this memory (Byte)
system.mem_ctrl.dram.bytesRead::total        67393280                       # Number of bytes read from this memory (Byte)
system.mem_ctrl.dram.bytesWritten::caches.controllers1     67393344                       # Number of bytes written to this memory (Byte)
system.mem_ctrl.dram.bytesWritten::total     67393344                       # Number of bytes written to this memory (Byte)
system.mem_ctrl.dram.numReads::caches.controllers1      1053020                       # Number of read requests responded to by this memory (Count)
system.mem_ctrl.dram.numReads::total          1053020                       # Number of read requests responded to by this memory (Count)
system.mem_ctrl.dram.numWrites::caches.controllers1      1053021                       # Number of write requests responded to by this memory (Count)
system.mem_ctrl.dram.numWrites::total         1053021                       # Number of write requests responded to by this memory (Count)
system.mem_ctrl.dram.bwRead::caches.controllers1    937432389                       # Total read bandwidth from this memory ((Byte/Second))
system.mem_ctrl.dram.bwRead::total          937432389                       # Total read bandwidth from this memory ((Byte/Second))
system.mem_ctrl.dram.bwWrite::caches.controllers1    937433280                       # Write bandwidth from this memory ((Byte/Second))
system.mem_ctrl.dram.bwWrite::total         937433280                       # Write bandwidth from this memory ((Byte/Second))
system.mem_ctrl.dram.bwTotal::caches.controllers1   1874865669                       # Total bandwidth to/from this memory ((Byte/Second))
system.mem_ctrl.dram.bwTotal::total        1874865669                       # Total bandwidth to/from this memory ((Byte/Second))
system.mem_ctrl.dram.readBursts               1052039                       # Number of DRAM read bursts (Count)
system.mem_ctrl.dram.writeBursts              1052543                       # Number of DRAM write bursts (Count)
system.mem_ctrl.dram.perBankRdBursts::0         66249                       # Per bank write bursts (Count)
system.mem_ctrl.dram.perBankRdBursts::1         65817                       # Per bank write bursts (Count)
system.mem_ctrl.dram.perBankRdBursts::2         65609                       # Per bank write bursts (Count)
system.mem_ctrl.dram.perBankRdBursts::3         65728                       # Per bank write bursts (Count)
system.mem_ctrl.dram.perBankRdBursts::4         65747                       # Per bank write bursts (Count)
system.mem_ctrl.dram.perBankRdBursts::5         65802                       # Per bank write bursts (Count)
system.mem_ctrl.dram.perBankRdBursts::6         65838                       # Per bank write bursts (Count)
system.mem_ctrl.dram.perBankRdBursts::7         65632                       # Per bank write bursts (Count)
system.mem_ctrl.dram.perBankRdBursts::8         65738                       # Per bank write bursts (Count)
system.mem_ctrl.dram.perBankRdBursts::9         65731                       # Per bank write bursts (Count)
system.mem_ctrl.dram.perBankRdBursts::10        65746                       # Per bank write bursts (Count)
system.mem_ctrl.dram.perBankRdBursts::11        65683                       # Per bank write bursts (Count)
system.mem_ctrl.dram.perBankRdBursts::12        65617                       # Per bank write bursts (Count)
system.mem_ctrl.dram.perBankRdBursts::13        65646                       # Per bank write bursts (Count)
system.mem_ctrl.dram.perBankRdBursts::14        65670                       # Per bank write bursts (Count)
system.mem_ctrl.dram.perBankRdBursts::15        65786                       # Per bank write bursts (Count)
system.mem_ctrl.dram.perBankWrBursts::0         66381                       # Per bank write bursts (Count)
system.mem_ctrl.dram.perBankWrBursts::1         65881                       # Per bank write bursts (Count)
system.mem_ctrl.dram.perBankWrBursts::2         65611                       # Per bank write bursts (Count)
system.mem_ctrl.dram.perBankWrBursts::3         65759                       # Per bank write bursts (Count)
system.mem_ctrl.dram.perBankWrBursts::4         65783                       # Per bank write bursts (Count)
system.mem_ctrl.dram.perBankWrBursts::5         65830                       # Per bank write bursts (Count)
system.mem_ctrl.dram.perBankWrBursts::6         65929                       # Per bank write bursts (Count)
system.mem_ctrl.dram.perBankWrBursts::7         65660                       # Per bank write bursts (Count)
system.mem_ctrl.dram.perBankWrBursts::8         65751                       # Per bank write bursts (Count)
system.mem_ctrl.dram.perBankWrBursts::9         65746                       # Per bank write bursts (Count)
system.mem_ctrl.dram.perBankWrBursts::10        65773                       # Per bank write bursts (Count)
system.mem_ctrl.dram.perBankWrBursts::11        65675                       # Per bank write bursts (Count)
system.mem_ctrl.dram.perBankWrBursts::12        65621                       # Per bank write bursts (Count)
system.mem_ctrl.dram.perBankWrBursts::13        65660                       # Per bank write bursts (Count)
system.mem_ctrl.dram.perBankWrBursts::14        65678                       # Per bank write bursts (Count)
system.mem_ctrl.dram.perBankWrBursts::15        65805                       # Per bank write bursts (Count)
system.mem_ctrl.dram.totQLat               9936764500                       # Total ticks spent queuing (Tick)
system.mem_ctrl.dram.totBusLat             5260195000                       # Total ticks spent in databus transfers (Tick)
system.mem_ctrl.dram.totMemAccLat         29662495750                       # Total ticks spent from burst creation until serviced by the DRAM (Tick)
system.mem_ctrl.dram.avgQLat                  9445.24                       # Average queueing delay per DRAM burst ((Tick/Count))
system.mem_ctrl.dram.avgBusLat                5000.00                       # Average bus latency per DRAM burst ((Tick/Count))
system.mem_ctrl.dram.avgMemAccLat            28195.24                       # Average memory access latency per DRAM burst ((Tick/Count))
system.mem_ctrl.dram.readRowHits               949185                       # Number of row buffer hits during reads (Count)
system.mem_ctrl.dram.writeRowHits             1003804                       # Number of row buffer hits during writes (Count)
system.mem_ctrl.dram.readRowHitRate             90.22                       # Row buffer hit rate for reads (Ratio)
system.mem_ctrl.dram.writeRowHitRate            95.37                       # Row buffer hit rate for writes (Ratio)
system.mem_ctrl.dram.bytesPerActivate::samples       151589                       # Bytes accessed per row activation (Byte)
system.mem_ctrl.dram.bytesPerActivate::mean   888.543206                       # Bytes accessed per row activation (Byte)
system.mem_ctrl.dram.bytesPerActivate::gmean   787.261783                       # Bytes accessed per row activation (Byte)
system.mem_ctrl.dram.bytesPerActivate::stdev   278.905897                       # Bytes accessed per row activation (Byte)
system.mem_ctrl.dram.bytesPerActivate::0-127         4517      2.98%      2.98% # Bytes accessed per row activation (Byte)
system.mem_ctrl.dram.bytesPerActivate::128-255         6126      4.04%      7.02% # Bytes accessed per row activation (Byte)
system.mem_ctrl.dram.bytesPerActivate::256-383         4813      3.18%     10.20% # Bytes accessed per row activation (Byte)
system.mem_ctrl.dram.bytesPerActivate::384-511         3948      2.60%     12.80% # Bytes accessed per row activation (Byte)
system.mem_ctrl.dram.bytesPerActivate::512-639         3516      2.32%     15.12% # Bytes accessed per row activation (Byte)
system.mem_ctrl.dram.bytesPerActivate::640-767         4218      2.78%     17.90% # Bytes accessed per row activation (Byte)
system.mem_ctrl.dram.bytesPerActivate::768-895         5001      3.30%     21.20% # Bytes accessed per row activation (Byte)
system.mem_ctrl.dram.bytesPerActivate::896-1023         6470      4.27%     25.47% # Bytes accessed per row activation (Byte)
system.mem_ctrl.dram.bytesPerActivate::1024-1151       112980     74.53%    100.00% # Bytes accessed per row activation (Byte)
system.mem_ctrl.dram.bytesPerActivate::total       151589                       # Bytes accessed per row activation (Byte)
system.mem_ctrl.dram.bytesRead               67330496                       # Total number of bytes read from DRAM (Byte)
system.mem_ctrl.dram.bytesWritten            67362752                       # Total number of bytes written to DRAM (Byte)
system.mem_ctrl.dram.avgRdBW               936.559071                       # Average DRAM read bandwidth in MiBytes/s ((Byte/Second))
system.mem_ctrl.dram.avgWrBW               937.007748                       # Average DRAM write bandwidth in MiBytes/s ((Byte/Second))
system.mem_ctrl.dram.peakBW                  12800.00                       # Theoretical peak bandwidth in MiByte/s ((Byte/Second))
system.mem_ctrl.dram.busUtil                    14.64                       # Data bus utilization in percentage (Ratio)
system.mem_ctrl.dram.busUtilRead                 7.32                       # Data bus utilization in percentage for reads (Ratio)
system.mem_ctrl.dram.busUtilWrite                7.32                       # Data bus utilization in percentage for writes (Ratio)
system.mem_ctrl.dram.pageHitRate                92.80                       # Row buffer hit rate, read and write combined (Ratio)
system.mem_ctrl.dram.power_state.pwrStateResidencyTicks::UNDEFINED 107425350000                       # Cumulative time (in ticks) in various power states (Tick)
system.mem_ctrl.dram.rank0.actEnergy        544646340                       # Energy for activate commands per rank (pJ) (Joule)
system.mem_ctrl.dram.rank0.preEnergy        289459830                       # Energy for precharge commands per rank (pJ) (Joule)
system.mem_ctrl.dram.rank0.readEnergy      3759259980                       # Energy for read commands per rank (pJ) (Joule)
system.mem_ctrl.dram.rank0.writeEnergy     2750574600                       # Energy for write commands per rank (pJ) (Joule)
system.mem_ctrl.dram.rank0.refreshEnergy 5674971120.000001                       # Energy for refresh commands per rank (pJ) (Joule)
system.mem_ctrl.dram.rank0.actBackEnergy  26079403800                       # Energy for active background per rank (pJ) (Joule)
system.mem_ctrl.dram.rank0.preBackEnergy   5646621600                       # Energy for precharge background per rank (pJ) (Joule)
system.mem_ctrl.dram.rank0.actPowerDownEnergy            0                       # Energy for active power-down per rank (pJ) (Joule)
system.mem_ctrl.dram.rank0.prePowerDownEnergy            0                       # Energy for precharge power-down per rank (pJ) (Joule)
system.mem_ctrl.dram.rank0.selfRefreshEnergy            0                       # Energy for self refresh per rank (pJ) (Joule)
system.mem_ctrl.dram.rank0.totalEnergy    44744937270                       # Total energy per rank (pJ) (Joule)
system.mem_ctrl.dram.rank0.averagePower    622.396676                       # Core power per rank (mW) (Watt)
system.mem_ctrl.dram.rank0.totalIdleTime            0                       # Total Idle time Per DRAM Rank (Tick)
system.mem_ctrl.dram.rank0.pwrStateTime::IDLE  14337237500                       # Time in different power states (Tick)
system.mem_ctrl.dram.rank0.pwrStateTime::REF   2400580000                       # Time in different power states (Tick)
system.mem_ctrl.dram.rank0.pwrStateTime::SREF            0                       # Time in different power states (Tick)
system.mem_ctrl.dram.rank0.pwrStateTime::PRE_PDN            0                       # Time in different power states (Tick)
system.mem_ctrl.dram.rank0.pwrStateTime::ACT  55158601250                       # Time in different power states (Tick)
system.mem_ctrl.dram.rank0.pwrStateTime::ACT_PDN            0                       # Time in different power states (Tick)
system.mem_ctrl.dram.rank1.actEnergy        537999000                       # Energy for activate commands per rank (pJ) (Joule)
system.mem_ctrl.dram.rank1.preEnergy        285922890                       # Energy for precharge commands per rank (pJ) (Joule)
system.mem_ctrl.dram.rank1.readEnergy      3752948220                       # Energy for read commands per rank (pJ) (Joule)
system.mem_ctrl.dram.rank1.writeEnergy     2744200980                       # Energy for write commands per rank (pJ) (Joule)
system.mem_ctrl.dram.rank1.refreshEnergy 5674971120.000001                       # Energy for refresh commands per rank (pJ) (Joule)
system.mem_ctrl.dram.rank1.actBackEnergy  26066699070                       # Energy for active background per rank (pJ) (Joule)
system.mem_ctrl.dram.rank1.preBackEnergy   5656457280                       # Energy for precharge background per rank (pJ) (Joule)
system.mem_ctrl.dram.rank1.actPowerDownEnergy            0                       # Energy for active power-down per rank (pJ) (Joule)
system.mem_ctrl.dram.rank1.prePowerDownEnergy            0                       # Energy for precharge power-down per rank (pJ) (Joule)
system.mem_ctrl.dram.rank1.selfRefreshEnergy            0                       # Energy for self refresh per rank (pJ) (Joule)
system.mem_ctrl.dram.rank1.totalEnergy    44719198560                       # Total energy per rank (pJ) (Joule)
system.mem_ctrl.dram.rank1.averagePower    622.038654                       # Core power per rank (mW) (Watt)
system.mem_ctrl.dram.rank1.totalIdleTime            0                       # Total Idle time Per DRAM Rank (Tick)
system.mem_ctrl.dram.rank1.pwrStateTime::IDLE  14359826500                       # Time in different power states (Tick)
system.mem_ctrl.dram.rank1.pwrStateTime::REF   2400580000                       # Time in different power states (Tick)
system.mem_ctrl.dram.rank1.pwrStateTime::SREF            0                       # Time in different power states (Tick)
system.mem_ctrl.dram.rank1.pwrStateTime::PRE_PDN            0                       # Time in different power states (Tick)
system.mem_ctrl.dram.rank1.pwrStateTime::ACT  55133765500                       # Time in different power states (Tick)
system.mem_ctrl.dram.rank1.pwrStateTime::ACT_PDN            0                       # Time in different power states (Tick)
system.mem_ctrl.power_state.pwrStateResidencyTicks::UNDEFINED 107425350000                       # Cumulative time (in ticks) in various power states (Tick)
system.workload.inst.arm                            0                       # number of arm instructions executed (Count)
system.workload.inst.quiesce                        0                       # number of quiesce instructions executed (Count)

---------- End Simulation Statistics   ----------
