
---------- Begin Simulation Statistics ----------
simSeconds                                   0.000235                       # Number of seconds simulated (Second)
simTicks                                    234989000                       # Number of ticks simulated (Tick)
finalTick                                   234989000                       # Number of ticks from beginning of simulation (restored from checkpoints and never reset) (Tick)
simFreq                                  1000000000000                       # The number of ticks per simulated second ((Tick/Second))
hostSeconds                                      0.86                       # Real time elapsed on the host (Second)
hostTickRate                                273022694                       # The number of ticks simulated per host second (ticks/s) ((Tick/Second))
hostMemory                                     750160                       # Number of bytes of host memory used (Byte)
simInsts                                       123064                       # Number of instructions simulated (Count)
simOps                                         227381                       # Number of ops (including micro ops) simulated (Count)
hostInstRate                                   142966                       # Simulator instruction rate (inst/s) ((Count/Second))
hostOpRate                                     264151                       # Simulator op (including micro ops) rate (op/s) ((Count/Second))
system.caches.delayHistogram::bucket_size            2                       # delay histogram for all message (Unspecified)
system.caches.delayHistogram::max_bucket           19                       # delay histogram for all message (Unspecified)
system.caches.delayHistogram::samples            7661                       # delay histogram for all message (Unspecified)
system.caches.delayHistogram::mean           0.088500                       # delay histogram for all message (Unspecified)
system.caches.delayHistogram::stdev          0.709503                       # delay histogram for all message (Unspecified)
system.caches.delayHistogram             |        7516     98.11%     98.11% |          39      0.51%     98.62% |          41      0.54%     99.15% |          47      0.61%     99.77% |          17      0.22%     99.99% |           0      0.00%     99.99% |           0      0.00%     99.99% |           0      0.00%     99.99% |           0      0.00%     99.99% |           1      0.01%    100.00% # delay histogram for all message (Unspecified)
system.caches.delayHistogram::total              7661                       # delay histogram for all message (Unspecified)
system.caches.m_outstandReqHistSeqr::bucket_size            2                       (Unspecified)
system.caches.m_outstandReqHistSeqr::max_bucket           19                       (Unspecified)
system.caches.m_outstandReqHistSeqr::samples        69660                       (Unspecified)
system.caches.m_outstandReqHistSeqr::mean     2.830965                       (Unspecified)
system.caches.m_outstandReqHistSeqr::gmean     2.054780                       (Unspecified)
system.caches.m_outstandReqHistSeqr::stdev     2.928121                       (Unspecified)
system.caches.m_outstandReqHistSeqr      |       27033     38.81%     38.81% |       28493     40.90%     79.71% |        7250     10.41%     90.12% |        1814      2.60%     92.72% |        1135      1.63%     94.35% |        1369      1.97%     96.32% |         983      1.41%     97.73% |         750      1.08%     98.80% |         833      1.20%    100.00% |           0      0.00%    100.00% (Unspecified)
system.caches.m_outstandReqHistSeqr::total        69660                       (Unspecified)
system.caches.m_latencyHistSeqr::bucket_size           64                       (Unspecified)
system.caches.m_latencyHistSeqr::max_bucket          639                       (Unspecified)
system.caches.m_latencyHistSeqr::samples        69767                       (Unspecified)
system.caches.m_latencyHistSeqr::mean        5.229177                       (Unspecified)
system.caches.m_latencyHistSeqr::gmean       1.283626                       (Unspecified)
system.caches.m_latencyHistSeqr::stdev      19.702209                       (Unspecified)
system.caches.m_latencyHistSeqr          |       68250     97.83%     97.83% |        1126      1.61%     99.44% |         327      0.47%     99.91% |          17      0.02%     99.93% |          26      0.04%     99.97% |          14      0.02%     99.99% |           3      0.00%     99.99% |           4      0.01%    100.00% |           0      0.00%    100.00% |           0      0.00%    100.00% (Unspecified)
system.caches.m_latencyHistSeqr::total          69767                       (Unspecified)
system.caches.m_hitLatencyHistSeqr::bucket_size           32                       (Unspecified)
system.caches.m_hitLatencyHistSeqr::max_bucket          319                       (Unspecified)
system.caches.m_hitLatencyHistSeqr::samples        65681                       (Unspecified)
system.caches.m_hitLatencyHistSeqr::mean     1.033556                       (Unspecified)
system.caches.m_hitLatencyHistSeqr::gmean     1.004910                       (Unspecified)
system.caches.m_hitLatencyHistSeqr::stdev     1.357245                       (Unspecified)
system.caches.m_hitLatencyHistSeqr       |       65669     99.98%     99.98% |           6      0.01%     99.99% |           1      0.00%     99.99% |           3      0.00%    100.00% |           1      0.00%    100.00% |           1      0.00%    100.00% |           0      0.00%    100.00% |           0      0.00%    100.00% |           0      0.00%    100.00% |           0      0.00%    100.00% (Unspecified)
system.caches.m_hitLatencyHistSeqr::total        65681                       (Unspecified)
system.caches.m_missLatencyHistSeqr::bucket_size           64                       (Unspecified)
system.caches.m_missLatencyHistSeqr::max_bucket          639                       (Unspecified)
system.caches.m_missLatencyHistSeqr::samples         4086                       (Unspecified)
system.caches.m_missLatencyHistSeqr::mean    72.672296                       (Unspecified)
system.caches.m_missLatencyHistSeqr::gmean    65.668621                       (Unspecified)
system.caches.m_missLatencyHistSeqr::stdev    42.037747                       (Unspecified)
system.caches.m_missLatencyHistSeqr      |        2575     63.02%     63.02% |        1122     27.46%     90.48% |         325      7.95%     98.43% |          17      0.42%     98.85% |          26      0.64%     99.49% |          14      0.34%     99.83% |           3      0.07%     99.90% |           4      0.10%    100.00% |           0      0.00%    100.00% |           0      0.00%    100.00% (Unspecified)
system.caches.m_missLatencyHistSeqr::total         4086                       (Unspecified)
system.caches.delayVCHist.vnet_1::bucket_size            1                       # delay histogram for vnet_1 (Unspecified)
system.caches.delayVCHist.vnet_1::max_bucket            9                       # delay histogram for vnet_1 (Unspecified)
system.caches.delayVCHist.vnet_1::samples         4086                       # delay histogram for vnet_1 (Unspecified)
system.caches.delayVCHist.vnet_1::mean       0.017132                       # delay histogram for vnet_1 (Unspecified)
system.caches.delayVCHist.vnet_1::stdev      0.291369                       # delay histogram for vnet_1 (Unspecified)
system.caches.delayVCHist.vnet_1         |        4069     99.58%     99.58% |           0      0.00%     99.58% |           6      0.15%     99.73% |           0      0.00%     99.73% |           5      0.12%     99.85% |           0      0.00%     99.85% |           5      0.12%     99.98% |           0      0.00%     99.98% |           1      0.02%    100.00% |           0      0.00%    100.00% # delay histogram for vnet_1 (Unspecified)
system.caches.delayVCHist.vnet_1::total          4086                       # delay histogram for vnet_1 (Unspecified)
system.caches.delayVCHist.vnet_2::bucket_size            2                       # delay histogram for vnet_2 (Unspecified)
system.caches.delayVCHist.vnet_2::max_bucket           19                       # delay histogram for vnet_2 (Unspecified)
system.caches.delayVCHist.vnet_2::samples         3575                       # delay histogram for vnet_2 (Unspecified)
system.caches.delayVCHist.vnet_2::mean       0.170070                       # delay histogram for vnet_2 (Unspecified)
system.caches.delayVCHist.vnet_2::stdev      0.984576                       # delay histogram for vnet_2 (Unspecified)
system.caches.delayVCHist.vnet_2         |        3447     96.42%     96.42% |          33      0.92%     97.34% |          36      1.01%     98.35% |          42      1.17%     99.52% |          16      0.45%     99.97% |           0      0.00%     99.97% |           0      0.00%     99.97% |           0      0.00%     99.97% |           0      0.00%     99.97% |           1      0.03%    100.00% # delay histogram for vnet_2 (Unspecified)
system.caches.delayVCHist.vnet_2::total          3575                       # delay histogram for vnet_2 (Unspecified)
system.caches.L1Cache_Controller.Load           30081      0.00%      0.00% (Unspecified)
system.caches.L1Cache_Controller.Ifetch         24813      0.00%      0.00% (Unspecified)
system.caches.L1Cache_Controller.Store          14874      0.00%      0.00% (Unspecified)
system.caches.L1Cache_Controller.Data            4086      0.00%      0.00% (Unspecified)
system.caches.L1Cache_Controller.Replacement         3575      0.00%      0.00% (Unspecified)
system.caches.L1Cache_Controller.Writeback_Ack         3575      0.00%      0.00% (Unspecified)
system.caches.L1Cache_Controller.I.Load          2014      0.00%      0.00% (Unspecified)
system.caches.L1Cache_Controller.I.Ifetch         1456      0.00%      0.00% (Unspecified)
system.caches.L1Cache_Controller.I.Store          617      0.00%      0.00% (Unspecified)
system.caches.L1Cache_Controller.M.Load         28067      0.00%      0.00% (Unspecified)
system.caches.L1Cache_Controller.M.Ifetch        23357      0.00%      0.00% (Unspecified)
system.caches.L1Cache_Controller.M.Store        14257      0.00%      0.00% (Unspecified)
system.caches.L1Cache_Controller.M.Replacement         3575      0.00%      0.00% (Unspecified)
system.caches.L1Cache_Controller.MI.Writeback_Ack         3575      0.00%      0.00% (Unspecified)
system.caches.L1Cache_Controller.IS.Data         3469      0.00%      0.00% (Unspecified)
system.caches.L1Cache_Controller.IM.Data          617      0.00%      0.00% (Unspecified)
system.caches.Directory_Controller.GETX          4087      0.00%      0.00% (Unspecified)
system.caches.Directory_Controller.PUTX          3575      0.00%      0.00% (Unspecified)
system.caches.Directory_Controller.Memory_Data         4086      0.00%      0.00% (Unspecified)
system.caches.Directory_Controller.Memory_Ack         3575      0.00%      0.00% (Unspecified)
system.caches.Directory_Controller.I.GETX         4087      0.00%      0.00% (Unspecified)
system.caches.Directory_Controller.M.PUTX         3575      0.00%      0.00% (Unspecified)
system.caches.Directory_Controller.IM.Memory_Data         4086      0.00%      0.00% (Unspecified)
system.caches.Directory_Controller.MI.Memory_Ack         3575      0.00%      0.00% (Unspecified)
system.caches.MachineType.Directory.miss_mach_latency_hist_seqr::bucket_size           64                       (Unspecified)
system.caches.MachineType.Directory.miss_mach_latency_hist_seqr::max_bucket          639                       (Unspecified)
system.caches.MachineType.Directory.miss_mach_latency_hist_seqr::samples         4086                       (Unspecified)
system.caches.MachineType.Directory.miss_mach_latency_hist_seqr::mean    72.672296                       (Unspecified)
system.caches.MachineType.Directory.miss_mach_latency_hist_seqr::gmean    65.668621                       (Unspecified)
system.caches.MachineType.Directory.miss_mach_latency_hist_seqr::stdev    42.037747                       (Unspecified)
system.caches.MachineType.Directory.miss_mach_latency_hist_seqr |        2575     63.02%     63.02% |        1122     27.46%     90.48% |         325      7.95%     98.43% |          17      0.42%     98.85% |          26      0.64%     99.49% |          14      0.34%     99.83% |           3      0.07%     99.90% |           4      0.10%    100.00% |           0      0.00%    100.00% |           0      0.00%    100.00% (Unspecified)
system.caches.MachineType.Directory.miss_mach_latency_hist_seqr::total         4086                       (Unspecified)
system.caches.MachineType.Directory.miss_latency_hist_seqr.issue_to_initial_request::bucket_size            1                       (Unspecified)
system.caches.MachineType.Directory.miss_latency_hist_seqr.issue_to_initial_request::max_bucket            9                       (Unspecified)
system.caches.MachineType.Directory.miss_latency_hist_seqr.issue_to_initial_request::samples            1                       (Unspecified)
system.caches.MachineType.Directory.miss_latency_hist_seqr.issue_to_initial_request::stdev          nan                       (Unspecified)
system.caches.MachineType.Directory.miss_latency_hist_seqr.issue_to_initial_request |           1    100.00%    100.00% |           0      0.00%    100.00% |           0      0.00%    100.00% |           0      0.00%    100.00% |           0      0.00%    100.00% |           0      0.00%    100.00% |           0      0.00%    100.00% |           0      0.00%    100.00% |           0      0.00%    100.00% |           0      0.00%    100.00% (Unspecified)
system.caches.MachineType.Directory.miss_latency_hist_seqr.issue_to_initial_request::total            1                       (Unspecified)
system.caches.MachineType.Directory.miss_latency_hist_seqr.initial_to_forward::bucket_size            1                       (Unspecified)
system.caches.MachineType.Directory.miss_latency_hist_seqr.initial_to_forward::max_bucket            9                       (Unspecified)
system.caches.MachineType.Directory.miss_latency_hist_seqr.initial_to_forward::samples            1                       (Unspecified)
system.caches.MachineType.Directory.miss_latency_hist_seqr.initial_to_forward::stdev          nan                       (Unspecified)
system.caches.MachineType.Directory.miss_latency_hist_seqr.initial_to_forward |           1    100.00%    100.00% |           0      0.00%    100.00% |           0      0.00%    100.00% |           0      0.00%    100.00% |           0      0.00%    100.00% |           0      0.00%    100.00% |           0      0.00%    100.00% |           0      0.00%    100.00% |           0      0.00%    100.00% |           0      0.00%    100.00% (Unspecified)
system.caches.MachineType.Directory.miss_latency_hist_seqr.initial_to_forward::total            1                       (Unspecified)
system.caches.MachineType.Directory.miss_latency_hist_seqr.forward_to_first_response::bucket_size            1                       (Unspecified)
system.caches.MachineType.Directory.miss_latency_hist_seqr.forward_to_first_response::max_bucket            9                       (Unspecified)
system.caches.MachineType.Directory.miss_latency_hist_seqr.forward_to_first_response::samples            1                       (Unspecified)
system.caches.MachineType.Directory.miss_latency_hist_seqr.forward_to_first_response::stdev          nan                       (Unspecified)
system.caches.MachineType.Directory.miss_latency_hist_seqr.forward_to_first_response |           1    100.00%    100.00% |           0      0.00%    100.00% |           0      0.00%    100.00% |           0      0.00%    100.00% |           0      0.00%    100.00% |           0      0.00%    100.00% |           0      0.00%    100.00% |           0      0.00%    100.00% |           0      0.00%    100.00% |           0      0.00%    100.00% (Unspecified)
system.caches.MachineType.Directory.miss_latency_hist_seqr.forward_to_first_response::total            1                       (Unspecified)
system.caches.MachineType.Directory.miss_latency_hist_seqr.first_response_to_completion::bucket_size            8                       (Unspecified)
system.caches.MachineType.Directory.miss_latency_hist_seqr.first_response_to_completion::max_bucket           79                       (Unspecified)
system.caches.MachineType.Directory.miss_latency_hist_seqr.first_response_to_completion::samples            1                       (Unspecified)
system.caches.MachineType.Directory.miss_latency_hist_seqr.first_response_to_completion::mean           73                       (Unspecified)
system.caches.MachineType.Directory.miss_latency_hist_seqr.first_response_to_completion::gmean    73.000000                       (Unspecified)
system.caches.MachineType.Directory.miss_latency_hist_seqr.first_response_to_completion::stdev          nan                       (Unspecified)
system.caches.MachineType.Directory.miss_latency_hist_seqr.first_response_to_completion |           0      0.00%      0.00% |           0      0.00%      0.00% |           0      0.00%      0.00% |           0      0.00%      0.00% |           0      0.00%      0.00% |           0      0.00%      0.00% |           0      0.00%      0.00% |           0      0.00%      0.00% |           0      0.00%      0.00% |           1    100.00%    100.00% (Unspecified)
system.caches.MachineType.Directory.miss_latency_hist_seqr.first_response_to_completion::total            1                       (Unspecified)
system.caches.MachineType.Directory.incomplete_times_seqr         4085                       (Unspecified)
system.caches.RequestType.LD.latency_hist_seqr::bucket_size           64                       (Unspecified)
system.caches.RequestType.LD.latency_hist_seqr::max_bucket          639                       (Unspecified)
system.caches.RequestType.LD.latency_hist_seqr::samples        30081                       (Unspecified)
system.caches.RequestType.LD.latency_hist_seqr::mean     6.067717                       (Unspecified)
system.caches.RequestType.LD.latency_hist_seqr::gmean     1.332430                       (Unspecified)
system.caches.RequestType.LD.latency_hist_seqr::stdev    22.113054                       (Unspecified)
system.caches.RequestType.LD.latency_hist_seqr |       29184     97.02%     97.02% |         668      2.22%     99.24% |         193      0.64%     99.88% |          11      0.04%     99.92% |          10      0.03%     99.95% |          11      0.04%     99.99% |           2      0.01%     99.99% |           2      0.01%    100.00% |           0      0.00%    100.00% |           0      0.00%    100.00% (Unspecified)
system.caches.RequestType.LD.latency_hist_seqr::total        30081                       (Unspecified)
system.caches.RequestType.LD.hit_latency_hist_seqr::bucket_size            4                       (Unspecified)
system.caches.RequestType.LD.hit_latency_hist_seqr::max_bucket           39                       (Unspecified)
system.caches.RequestType.LD.hit_latency_hist_seqr::samples        28067                       (Unspecified)
system.caches.RequestType.LD.hit_latency_hist_seqr::mean     1.023052                       (Unspecified)
system.caches.RequestType.LD.hit_latency_hist_seqr::gmean     1.004248                       (Unspecified)
system.caches.RequestType.LD.hit_latency_hist_seqr::stdev     0.612237                       (Unspecified)
system.caches.RequestType.LD.hit_latency_hist_seqr |       28024     99.85%     99.85% |           4      0.01%     99.86% |           2      0.01%     99.87% |           8      0.03%     99.90% |          19      0.07%     99.96% |          10      0.04%    100.00% |           0      0.00%    100.00% |           0      0.00%    100.00% |           0      0.00%    100.00% |           0      0.00%    100.00% (Unspecified)
system.caches.RequestType.LD.hit_latency_hist_seqr::total        28067                       (Unspecified)
system.caches.RequestType.LD.miss_latency_hist_seqr::bucket_size           64                       (Unspecified)
system.caches.RequestType.LD.miss_latency_hist_seqr::max_bucket          639                       (Unspecified)
system.caches.RequestType.LD.miss_latency_hist_seqr::samples         2014                       (Unspecified)
system.caches.RequestType.LD.miss_latency_hist_seqr::mean    76.369911                       (Unspecified)
system.caches.RequestType.LD.miss_latency_hist_seqr::gmean    68.553603                       (Unspecified)
system.caches.RequestType.LD.miss_latency_hist_seqr::stdev    44.743323                       (Unspecified)
system.caches.RequestType.LD.miss_latency_hist_seqr |        1117     55.46%     55.46% |         668     33.17%     88.63% |         193      9.58%     98.21% |          11      0.55%     98.76% |          10      0.50%     99.26% |          11      0.55%     99.80% |           2      0.10%     99.90% |           2      0.10%    100.00% |           0      0.00%    100.00% |           0      0.00%    100.00% (Unspecified)
system.caches.RequestType.LD.miss_latency_hist_seqr::total         2014                       (Unspecified)
system.caches.RequestType.ST.latency_hist_seqr::bucket_size           64                       (Unspecified)
system.caches.RequestType.ST.latency_hist_seqr::max_bucket          639                       (Unspecified)
system.caches.RequestType.ST.latency_hist_seqr::samples        14446                       (Unspecified)
system.caches.RequestType.ST.latency_hist_seqr::mean     4.014883                       (Unspecified)
system.caches.RequestType.ST.latency_hist_seqr::gmean     1.200366                       (Unspecified)
system.caches.RequestType.ST.latency_hist_seqr::stdev    16.584941                       (Unspecified)
system.caches.RequestType.ST.latency_hist_seqr |       14260     98.71%     98.71% |         126      0.87%     99.58% |          52      0.36%     99.94% |           1      0.01%     99.95% |           6      0.04%     99.99% |           0      0.00%     99.99% |           0      0.00%     99.99% |           1      0.01%    100.00% |           0      0.00%    100.00% |           0      0.00%    100.00% (Unspecified)
system.caches.RequestType.ST.latency_hist_seqr::total        14446                       (Unspecified)
system.caches.RequestType.ST.hit_latency_hist_seqr::bucket_size           32                       (Unspecified)
system.caches.RequestType.ST.hit_latency_hist_seqr::max_bucket          319                       (Unspecified)
system.caches.RequestType.ST.hit_latency_hist_seqr::samples        13849                       (Unspecified)
system.caches.RequestType.ST.hit_latency_hist_seqr::mean     1.061882                       (Unspecified)
system.caches.RequestType.ST.hit_latency_hist_seqr::gmean     1.009732                       (Unspecified)
system.caches.RequestType.ST.hit_latency_hist_seqr::stdev     2.021440                       (Unspecified)
system.caches.RequestType.ST.hit_latency_hist_seqr |       13842     99.95%     99.95% |           4      0.03%     99.98% |           1      0.01%     99.99% |           1      0.01%     99.99% |           0      0.00%     99.99% |           1      0.01%    100.00% |           0      0.00%    100.00% |           0      0.00%    100.00% |           0      0.00%    100.00% |           0      0.00%    100.00% (Unspecified)
system.caches.RequestType.ST.hit_latency_hist_seqr::total        13849                       (Unspecified)
system.caches.RequestType.ST.miss_latency_hist_seqr::bucket_size           64                       (Unspecified)
system.caches.RequestType.ST.miss_latency_hist_seqr::max_bucket          639                       (Unspecified)
system.caches.RequestType.ST.miss_latency_hist_seqr::samples          597                       (Unspecified)
system.caches.RequestType.ST.miss_latency_hist_seqr::mean    72.517588                       (Unspecified)
system.caches.RequestType.ST.miss_latency_hist_seqr::gmean    66.317120                       (Unspecified)
system.caches.RequestType.ST.miss_latency_hist_seqr::stdev    40.846723                       (Unspecified)
system.caches.RequestType.ST.miss_latency_hist_seqr |         414     69.35%     69.35% |         124     20.77%     90.12% |          51      8.54%     98.66% |           1      0.17%     98.83% |           6      1.01%     99.83% |           0      0.00%     99.83% |           0      0.00%     99.83% |           1      0.17%    100.00% |           0      0.00%    100.00% |           0      0.00%    100.00% (Unspecified)
system.caches.RequestType.ST.miss_latency_hist_seqr::total          597                       (Unspecified)
system.caches.RequestType.IFETCH.latency_hist_seqr::bucket_size           64                       (Unspecified)
system.caches.RequestType.IFETCH.latency_hist_seqr::max_bucket          639                       (Unspecified)
system.caches.RequestType.IFETCH.latency_hist_seqr::samples        24812                       (Unspecified)
system.caches.RequestType.IFETCH.latency_hist_seqr::mean     4.914678                       (Unspecified)
system.caches.RequestType.IFETCH.latency_hist_seqr::gmean     1.275700                       (Unspecified)
system.caches.RequestType.IFETCH.latency_hist_seqr::stdev    18.161001                       (Unspecified)
system.caches.RequestType.IFETCH.latency_hist_seqr |       24393     98.31%     98.31% |         321      1.29%     99.61% |          78      0.31%     99.92% |           5      0.02%     99.94% |          10      0.04%     99.98% |           3      0.01%     99.99% |           1      0.00%    100.00% |           1      0.00%    100.00% |           0      0.00%    100.00% |           0      0.00%    100.00% (Unspecified)
system.caches.RequestType.IFETCH.latency_hist_seqr::total        24812                       (Unspecified)
system.caches.RequestType.IFETCH.hit_latency_hist_seqr::bucket_size            4                       (Unspecified)
system.caches.RequestType.IFETCH.hit_latency_hist_seqr::max_bucket           39                       (Unspecified)
system.caches.RequestType.IFETCH.hit_latency_hist_seqr::samples        23357                       (Unspecified)
system.caches.RequestType.IFETCH.hit_latency_hist_seqr::mean     1.010489                       (Unspecified)
system.caches.RequestType.IFETCH.hit_latency_hist_seqr::gmean     1.001968                       (Unspecified)
system.caches.RequestType.IFETCH.hit_latency_hist_seqr::stdev     0.418388                       (Unspecified)
system.caches.RequestType.IFETCH.hit_latency_hist_seqr |       23340     99.93%     99.93% |           2      0.01%     99.94% |           2      0.01%     99.94% |           5      0.02%     99.97% |           3      0.01%     99.98% |           5      0.02%    100.00% |           0      0.00%    100.00% |           0      0.00%    100.00% |           0      0.00%    100.00% |           0      0.00%    100.00% (Unspecified)
system.caches.RequestType.IFETCH.hit_latency_hist_seqr::total        23357                       (Unspecified)
system.caches.RequestType.IFETCH.miss_latency_hist_seqr::bucket_size           64                       (Unspecified)
system.caches.RequestType.IFETCH.miss_latency_hist_seqr::max_bucket          639                       (Unspecified)
system.caches.RequestType.IFETCH.miss_latency_hist_seqr::samples         1455                       (Unspecified)
system.caches.RequestType.IFETCH.miss_latency_hist_seqr::mean    67.588316                       (Unspecified)
system.caches.RequestType.IFETCH.miss_latency_hist_seqr::gmean    61.605118                       (Unspecified)
system.caches.RequestType.IFETCH.miss_latency_hist_seqr::stdev    38.075094                       (Unspecified)
system.caches.RequestType.IFETCH.miss_latency_hist_seqr |        1036     71.20%     71.20% |         321     22.06%     93.26% |          78      5.36%     98.63% |           5      0.34%     98.97% |          10      0.69%     99.66% |           3      0.21%     99.86% |           1      0.07%     99.93% |           1      0.07%    100.00% |           0      0.00%    100.00% |           0      0.00%    100.00% (Unspecified)
system.caches.RequestType.IFETCH.miss_latency_hist_seqr::total         1455                       (Unspecified)
system.caches.RequestType.RMW_Read.latency_hist_seqr::bucket_size           16                       (Unspecified)
system.caches.RequestType.RMW_Read.latency_hist_seqr::max_bucket          159                       (Unspecified)
system.caches.RequestType.RMW_Read.latency_hist_seqr::samples          428                       (Unspecified)
system.caches.RequestType.RMW_Read.latency_hist_seqr::mean     5.511682                       (Unspecified)
system.caches.RequestType.RMW_Read.latency_hist_seqr::gmean     1.283495                       (Unspecified)
system.caches.RequestType.RMW_Read.latency_hist_seqr::stdev    20.036789                       (Unspecified)
system.caches.RequestType.RMW_Read.latency_hist_seqr |         403     94.16%     94.16% |           3      0.70%     94.86% |           2      0.47%     95.33% |           5      1.17%     96.50% |           2      0.47%     96.96% |           7      1.64%     98.60% |           1      0.23%     98.83% |           1      0.23%     99.07% |           2      0.47%     99.53% |           2      0.47%    100.00% (Unspecified)
system.caches.RequestType.RMW_Read.latency_hist_seqr::total          428                       (Unspecified)
system.caches.RequestType.RMW_Read.hit_latency_hist_seqr::bucket_size           16                       (Unspecified)
system.caches.RequestType.RMW_Read.hit_latency_hist_seqr::max_bucket          159                       (Unspecified)
system.caches.RequestType.RMW_Read.hit_latency_hist_seqr::samples          408                       (Unspecified)
system.caches.RequestType.RMW_Read.hit_latency_hist_seqr::mean     2.115196                       (Unspecified)
system.caches.RequestType.RMW_Read.hit_latency_hist_seqr::gmean     1.057082                       (Unspecified)
system.caches.RequestType.RMW_Read.hit_latency_hist_seqr::stdev    11.004978                       (Unspecified)
system.caches.RequestType.RMW_Read.hit_latency_hist_seqr |         403     98.77%     98.77% |           0      0.00%     98.77% |           1      0.25%     99.02% |           1      0.25%     99.26% |           0      0.00%     99.26% |           0      0.00%     99.26% |           1      0.25%     99.51% |           1      0.25%     99.75% |           0      0.00%     99.75% |           1      0.25%    100.00% (Unspecified)
system.caches.RequestType.RMW_Read.hit_latency_hist_seqr::total          408                       (Unspecified)
system.caches.RequestType.RMW_Read.miss_latency_hist_seqr::bucket_size           16                       (Unspecified)
system.caches.RequestType.RMW_Read.miss_latency_hist_seqr::max_bucket          159                       (Unspecified)
system.caches.RequestType.RMW_Read.miss_latency_hist_seqr::samples           20                       (Unspecified)
system.caches.RequestType.RMW_Read.miss_latency_hist_seqr::mean    74.800000                       (Unspecified)
system.caches.RequestType.RMW_Read.miss_latency_hist_seqr::gmean    67.269932                       (Unspecified)
system.caches.RequestType.RMW_Read.miss_latency_hist_seqr::stdev    33.570977                       (Unspecified)
system.caches.RequestType.RMW_Read.miss_latency_hist_seqr |           0      0.00%      0.00% |           3     15.00%     15.00% |           1      5.00%     20.00% |           4     20.00%     40.00% |           2     10.00%     50.00% |           7     35.00%     85.00% |           0      0.00%     85.00% |           0      0.00%     85.00% |           2     10.00%     95.00% |           1      5.00%    100.00% (Unspecified)
system.caches.RequestType.RMW_Read.miss_latency_hist_seqr::total           20                       (Unspecified)
system.caches.RequestTypeMachineType.LD.Directory.miss_type_mach_latency_hist_seqr::bucket_size           64                       (Unspecified)
system.caches.RequestTypeMachineType.LD.Directory.miss_type_mach_latency_hist_seqr::max_bucket          639                       (Unspecified)
system.caches.RequestTypeMachineType.LD.Directory.miss_type_mach_latency_hist_seqr::samples         2014                       (Unspecified)
system.caches.RequestTypeMachineType.LD.Directory.miss_type_mach_latency_hist_seqr::mean    76.369911                       (Unspecified)
system.caches.RequestTypeMachineType.LD.Directory.miss_type_mach_latency_hist_seqr::gmean    68.553603                       (Unspecified)
system.caches.RequestTypeMachineType.LD.Directory.miss_type_mach_latency_hist_seqr::stdev    44.743323                       (Unspecified)
system.caches.RequestTypeMachineType.LD.Directory.miss_type_mach_latency_hist_seqr |        1117     55.46%     55.46% |         668     33.17%     88.63% |         193      9.58%     98.21% |          11      0.55%     98.76% |          10      0.50%     99.26% |          11      0.55%     99.80% |           2      0.10%     99.90% |           2      0.10%    100.00% |           0      0.00%    100.00% |           0      0.00%    100.00% (Unspecified)
system.caches.RequestTypeMachineType.LD.Directory.miss_type_mach_latency_hist_seqr::total         2014                       (Unspecified)
system.caches.RequestTypeMachineType.ST.Directory.miss_type_mach_latency_hist_seqr::bucket_size           64                       (Unspecified)
system.caches.RequestTypeMachineType.ST.Directory.miss_type_mach_latency_hist_seqr::max_bucket          639                       (Unspecified)
system.caches.RequestTypeMachineType.ST.Directory.miss_type_mach_latency_hist_seqr::samples          597                       (Unspecified)
system.caches.RequestTypeMachineType.ST.Directory.miss_type_mach_latency_hist_seqr::mean    72.517588                       (Unspecified)
system.caches.RequestTypeMachineType.ST.Directory.miss_type_mach_latency_hist_seqr::gmean    66.317120                       (Unspecified)
system.caches.RequestTypeMachineType.ST.Directory.miss_type_mach_latency_hist_seqr::stdev    40.846723                       (Unspecified)
system.caches.RequestTypeMachineType.ST.Directory.miss_type_mach_latency_hist_seqr |         414     69.35%     69.35% |         124     20.77%     90.12% |          51      8.54%     98.66% |           1      0.17%     98.83% |           6      1.01%     99.83% |           0      0.00%     99.83% |           0      0.00%     99.83% |           1      0.17%    100.00% |           0      0.00%    100.00% |           0      0.00%    100.00% (Unspecified)
system.caches.RequestTypeMachineType.ST.Directory.miss_type_mach_latency_hist_seqr::total          597                       (Unspecified)
system.caches.RequestTypeMachineType.IFETCH.Directory.miss_type_mach_latency_hist_seqr::bucket_size           64                       (Unspecified)
system.caches.RequestTypeMachineType.IFETCH.Directory.miss_type_mach_latency_hist_seqr::max_bucket          639                       (Unspecified)
system.caches.RequestTypeMachineType.IFETCH.Directory.miss_type_mach_latency_hist_seqr::samples         1455                       (Unspecified)
system.caches.RequestTypeMachineType.IFETCH.Directory.miss_type_mach_latency_hist_seqr::mean    67.588316                       (Unspecified)
system.caches.RequestTypeMachineType.IFETCH.Directory.miss_type_mach_latency_hist_seqr::gmean    61.605118                       (Unspecified)
system.caches.RequestTypeMachineType.IFETCH.Directory.miss_type_mach_latency_hist_seqr::stdev    38.075094                       (Unspecified)
system.caches.RequestTypeMachineType.IFETCH.Directory.miss_type_mach_latency_hist_seqr |        1036     71.20%     71.20% |         321     22.06%     93.26% |          78      5.36%     98.63% |           5      0.34%     98.97% |          10      0.69%     99.66% |           3      0.21%     99.86% |           1      0.07%     99.93% |           1      0.07%    100.00% |           0      0.00%    100.00% |           0      0.00%    100.00% (Unspecified)
system.caches.RequestTypeMachineType.IFETCH.Directory.miss_type_mach_latency_hist_seqr::total         1455                       (Unspecified)
system.caches.RequestTypeMachineType.RMW_Read.Directory.miss_type_mach_latency_hist_seqr::bucket_size           16                       (Unspecified)
system.caches.RequestTypeMachineType.RMW_Read.Directory.miss_type_mach_latency_hist_seqr::max_bucket          159                       (Unspecified)
system.caches.RequestTypeMachineType.RMW_Read.Directory.miss_type_mach_latency_hist_seqr::samples           20                       (Unspecified)
system.caches.RequestTypeMachineType.RMW_Read.Directory.miss_type_mach_latency_hist_seqr::mean    74.800000                       (Unspecified)
system.caches.RequestTypeMachineType.RMW_Read.Directory.miss_type_mach_latency_hist_seqr::gmean    67.269932                       (Unspecified)
system.caches.RequestTypeMachineType.RMW_Read.Directory.miss_type_mach_latency_hist_seqr::stdev    33.570977                       (Unspecified)
system.caches.RequestTypeMachineType.RMW_Read.Directory.miss_type_mach_latency_hist_seqr |           0      0.00%      0.00% |           3     15.00%     15.00% |           1      5.00%     20.00% |           4     20.00%     40.00% |           2     10.00%     50.00% |           7     35.00%     85.00% |           0      0.00%     85.00% |           0      0.00%     85.00% |           2     10.00%     95.00% |           1      5.00%    100.00% (Unspecified)
system.caches.RequestTypeMachineType.RMW_Read.Directory.miss_type_mach_latency_hist_seqr::total           20                       (Unspecified)
system.caches.controllers0.delayHistogram::samples         7661                       # delay_histogram (Unspecified)
system.caches.controllers0.delayHistogram::mean     0.088500                       # delay_histogram (Unspecified)
system.caches.controllers0.delayHistogram::stdev     0.709503                       # delay_histogram (Unspecified)
system.caches.controllers0.delayHistogram::0-1         7516     98.11%     98.11% # delay_histogram (Unspecified)
system.caches.controllers0.delayHistogram::2-3           39      0.51%     98.62% # delay_histogram (Unspecified)
system.caches.controllers0.delayHistogram::4-5           41      0.54%     99.15% # delay_histogram (Unspecified)
system.caches.controllers0.delayHistogram::6-7           47      0.61%     99.77% # delay_histogram (Unspecified)
system.caches.controllers0.delayHistogram::8-9           17      0.22%     99.99% # delay_histogram (Unspecified)
system.caches.controllers0.delayHistogram::18-19            1      0.01%    100.00% # delay_histogram (Unspecified)
system.caches.controllers0.delayHistogram::total         7661                       # delay_histogram (Unspecified)
system.caches.controllers0.cacheMemory.m_demand_hits        65681                       # Number of cache demand hits (Unspecified)
system.caches.controllers0.cacheMemory.m_demand_misses         4087                       # Number of cache demand misses (Unspecified)
system.caches.controllers0.cacheMemory.m_demand_accesses        69768                       # Number of cache demand accesses (Unspecified)
system.caches.controllers0.forwardToCache.m_buf_msgs     0.015213                       # Average number of messages in buffer (Unspecified)
system.caches.controllers0.forwardToCache.m_stall_time  4856.478389                       # Average number of cycles messages are stalled in this MB (Unspecified)
system.caches.controllers0.mandatoryQueue.m_buf_msgs     0.303665                       # Average number of messages in buffer (Unspecified)
system.caches.controllers0.mandatoryQueue.m_stall_time  1018.992378                       # Average number of cycles messages are stalled in this MB (Unspecified)
system.caches.controllers0.power_state.pwrStateResidencyTicks::UNDEFINED    234989000                       # Cumulative time (in ticks) in various power states (Tick)
system.caches.controllers0.requestFromCache.m_buf_msgs     0.065212                       # Average number of messages in buffer (Unspecified)
system.caches.controllers0.requestFromCache.m_stall_time  1999.974467                       # Average number of cycles messages are stalled in this MB (Unspecified)
system.caches.controllers0.responseToCache.m_buf_msgs     0.017388                       # Average number of messages in buffer (Unspecified)
system.caches.controllers0.responseToCache.m_stall_time  5011.366489                       # Average number of cycles messages are stalled in this MB (Unspecified)
system.caches.controllers1.forwardFromDir.m_buf_msgs     0.015213                       # Average number of messages in buffer (Unspecified)
system.caches.controllers1.forwardFromDir.m_stall_time   959.759819                       # Average number of cycles messages are stalled in this MB (Unspecified)
system.caches.controllers1.power_state.pwrStateResidencyTicks::UNDEFINED    234989000                       # Cumulative time (in ticks) in various power states (Tick)
system.caches.controllers1.requestToDir.m_buf_msgs     0.032606                       # Average number of messages in buffer (Unspecified)
system.caches.controllers1.requestToDir.m_stall_time  9744.519957                       # Average number of cycles messages are stalled in this MB (Unspecified)
system.caches.controllers1.requestToMemory.m_buf_msgs     0.032644                       # Average number of messages in buffer (Unspecified)
system.caches.controllers1.requestToMemory.m_stall_time  1000.497896                       # Average number of cycles messages are stalled in this MB (Unspecified)
system.caches.controllers1.responseFromDir.m_buf_msgs     0.017388                       # Average number of messages in buffer (Unspecified)
system.caches.controllers1.responseFromDir.m_stall_time   999.706369                       # Average number of cycles messages are stalled in this MB (Unspecified)
system.caches.controllers1.responseFromMemory.m_buf_msgs     0.038320                       # Average number of messages in buffer (Unspecified)
system.caches.controllers1.responseFromMemory.m_stall_time   999.710625                       # Average number of cycles messages are stalled in this MB (Unspecified)
system.caches.network.msg_count.Control          8174                       (Unspecified)
system.caches.network.msg_byte.Control          65392                       (Unspecified)
system.caches.network.msg_count.Data             7150                       (Unspecified)
system.caches.network.msg_byte.Data            514800                       (Unspecified)
system.caches.network.msg_count.Response_Data         8172                       (Unspecified)
system.caches.network.msg_byte.Response_Data       588384                       (Unspecified)
system.caches.network.msg_count.Writeback_Control         7150                       (Unspecified)
system.caches.network.msg_byte.Writeback_Control        57200                       (Unspecified)
system.caches.network.int_link_buffers2.m_buf_msgs     0.032606                       # Average number of messages in buffer (Unspecified)
system.caches.network.int_link_buffers2.m_stall_time  7744.647623                       # Average number of cycles messages are stalled in this MB (Unspecified)
system.caches.network.int_link_buffers8.m_buf_msgs     0.015213                       # Average number of messages in buffer (Unspecified)
system.caches.network.int_link_buffers8.m_stall_time  2937.018329                       # Average number of cycles messages are stalled in this MB (Unspecified)
system.caches.network.int_link_buffers9.m_buf_msgs     0.017388                       # Average number of messages in buffer (Unspecified)
system.caches.network.int_link_buffers9.m_stall_time  3012.013328                       # Average number of cycles messages are stalled in this MB (Unspecified)
system.caches.network.power_state.pwrStateResidencyTicks::UNDEFINED    234989000                       # Cumulative time (in ticks) in various power states (Tick)
system.caches.network.routers0.percent_links_utilized     8.150488                       (Unspecified)
system.caches.network.routers0.msg_count.Control::2         4087                       (Unspecified)
system.caches.network.routers0.msg_bytes.Control::2        32696                       (Unspecified)
system.caches.network.routers0.msg_count.Data::2         3575                       (Unspecified)
system.caches.network.routers0.msg_bytes.Data::2       257400                       (Unspecified)
system.caches.network.routers0.msg_count.Response_Data::4         4086                       (Unspecified)
system.caches.network.routers0.msg_bytes.Response_Data::4       294192                       (Unspecified)
system.caches.network.routers0.msg_count.Writeback_Control::3         3575                       (Unspecified)
system.caches.network.routers0.msg_bytes.Writeback_Control::3        28600                       (Unspecified)
system.caches.network.routers0.port_buffers3.m_buf_msgs     0.015213                       # Average number of messages in buffer (Unspecified)
system.caches.network.routers0.port_buffers3.m_stall_time  3896.752614                       # Average number of cycles messages are stalled in this MB (Unspecified)
system.caches.network.routers0.port_buffers4.m_buf_msgs     0.017388                       # Average number of messages in buffer (Unspecified)
system.caches.network.routers0.port_buffers4.m_stall_time  4011.694164                       # Average number of cycles messages are stalled in this MB (Unspecified)
system.caches.network.routers0.port_buffers7.m_buf_msgs     0.108001                       # Average number of messages in buffer (Unspecified)
system.caches.network.routers0.port_buffers7.m_stall_time  6744.698689                       # Average number of cycles messages are stalled in this MB (Unspecified)
system.caches.network.routers0.power_state.pwrStateResidencyTicks::UNDEFINED    234989000                       # Cumulative time (in ticks) in various power states (Tick)
system.caches.network.routers0.throttle00.link_utilization     8.585295                       (Unspecified)
system.caches.network.routers0.throttle00.msg_count.Response_Data::4         4086                       (Unspecified)
system.caches.network.routers0.throttle00.msg_bytes.Response_Data::4       294192                       (Unspecified)
system.caches.network.routers0.throttle00.msg_count.Writeback_Control::3         3575                       (Unspecified)
system.caches.network.routers0.throttle00.msg_bytes.Writeback_Control::3        28600                       (Unspecified)
system.caches.network.routers0.throttle01.link_utilization     7.715680                       (Unspecified)
system.caches.network.routers0.throttle01.msg_count.Control::2         4087                       (Unspecified)
system.caches.network.routers0.throttle01.msg_bytes.Control::2        32696                       (Unspecified)
system.caches.network.routers0.throttle01.msg_count.Data::2         3575                       (Unspecified)
system.caches.network.routers0.throttle01.msg_bytes.Data::2       257400                       (Unspecified)
system.caches.network.routers1.percent_links_utilized     8.150488                       (Unspecified)
system.caches.network.routers1.msg_count.Control::2         4087                       (Unspecified)
system.caches.network.routers1.msg_bytes.Control::2        32696                       (Unspecified)
system.caches.network.routers1.msg_count.Data::2         3575                       (Unspecified)
system.caches.network.routers1.msg_bytes.Data::2       257400                       (Unspecified)
system.caches.network.routers1.msg_count.Response_Data::4         4086                       (Unspecified)
system.caches.network.routers1.msg_bytes.Response_Data::4       294192                       (Unspecified)
system.caches.network.routers1.msg_count.Writeback_Control::3         3575                       (Unspecified)
system.caches.network.routers1.msg_bytes.Writeback_Control::3        28600                       (Unspecified)
system.caches.network.routers1.port_buffers2.m_buf_msgs     0.032606                       # Average number of messages in buffer (Unspecified)
system.caches.network.routers1.port_buffers2.m_stall_time  8744.588046                       # Average number of cycles messages are stalled in this MB (Unspecified)
system.caches.network.routers1.port_buffers6.m_buf_msgs     0.016507                       # Average number of messages in buffer (Unspecified)
system.caches.network.routers1.port_buffers6.m_stall_time  1977.275532                       # Average number of cycles messages are stalled in this MB (Unspecified)
system.caches.network.routers1.port_buffers7.m_buf_msgs     0.017537                       # Average number of messages in buffer (Unspecified)
system.caches.network.routers1.port_buffers7.m_stall_time  2012.323981                       # Average number of cycles messages are stalled in this MB (Unspecified)
system.caches.network.routers1.power_state.pwrStateResidencyTicks::UNDEFINED    234989000                       # Cumulative time (in ticks) in various power states (Tick)
system.caches.network.routers1.throttle00.link_utilization     7.715680                       (Unspecified)
system.caches.network.routers1.throttle00.msg_count.Control::2         4087                       (Unspecified)
system.caches.network.routers1.throttle00.msg_bytes.Control::2        32696                       (Unspecified)
system.caches.network.routers1.throttle00.msg_count.Data::2         3575                       (Unspecified)
system.caches.network.routers1.throttle00.msg_bytes.Data::2       257400                       (Unspecified)
system.caches.network.routers1.throttle01.link_utilization     8.585295                       (Unspecified)
system.caches.network.routers1.throttle01.msg_count.Response_Data::4         4086                       (Unspecified)
system.caches.network.routers1.throttle01.msg_bytes.Response_Data::4       294192                       (Unspecified)
system.caches.network.routers1.throttle01.msg_count.Writeback_Control::3         3575                       (Unspecified)
system.caches.network.routers1.throttle01.msg_bytes.Writeback_Control::3        28600                       (Unspecified)
system.caches.power_state.pwrStateResidencyTicks::UNDEFINED    234989000                       # Cumulative time (in ticks) in various power states (Tick)
system.caches.sequencers.power_state.pwrStateResidencyTicks::UNDEFINED    234989000                       # Cumulative time (in ticks) in various power states (Tick)
system.caches.sys_port_proxy.power_state.pwrStateResidencyTicks::UNDEFINED    234989000                       # Cumulative time (in ticks) in various power states (Tick)
system.clk_domain.clock                          1000                       # Clock period in ticks (Tick)
system.clk_domain.voltage_domain.voltage            1                       # Voltage in Volts (Volt)
system.cpu.numCycles                           234990                       # Number of cpu cycles simulated (Cycle)
system.cpu.numWorkItemsStarted                      0                       # Number of work items this cpu started (Count)
system.cpu.numWorkItemsCompleted                    0                       # Number of work items this cpu completed (Count)
system.cpu.instsAdded                          341242                       # Number of instructions added to the IQ (excludes non-spec) (Count)
system.cpu.nonSpecInstsAdded                        5                       # Number of non-speculative instructions added to the IQ (Count)
system.cpu.instsIssued                         304238                       # Number of instructions issued (Count)
system.cpu.squashedInstsIssued                    286                       # Number of squashed instructions issued (Count)
system.cpu.squashedInstsExamined               113850                       # Number of squashed instructions iterated over during squash; mainly for profiling (Count)
system.cpu.squashedOperandsExamined            161446                       # Number of squashed operands that are examined and possibly removed from graph (Count)
system.cpu.squashedNonSpecRemoved                   4                       # Number of squashed non-spec instructions that were removed (Count)
system.cpu.numIssuedDist::samples              199673                       # Number of insts issued each cycle (Count)
system.cpu.numIssuedDist::mean               1.523681                       # Number of insts issued each cycle (Count)
system.cpu.numIssuedDist::stdev              2.238821                       # Number of insts issued each cycle (Count)
system.cpu.numIssuedDist::underflows                0      0.00%      0.00% # Number of insts issued each cycle (Count)
system.cpu.numIssuedDist::0                    116681     58.44%     58.44% # Number of insts issued each cycle (Count)
system.cpu.numIssuedDist::1                     15517      7.77%     66.21% # Number of insts issued each cycle (Count)
system.cpu.numIssuedDist::2                     13713      6.87%     73.07% # Number of insts issued each cycle (Count)
system.cpu.numIssuedDist::3                     12776      6.40%     79.47% # Number of insts issued each cycle (Count)
system.cpu.numIssuedDist::4                     12091      6.06%     85.53% # Number of insts issued each cycle (Count)
system.cpu.numIssuedDist::5                     11007      5.51%     91.04% # Number of insts issued each cycle (Count)
system.cpu.numIssuedDist::6                      9303      4.66%     95.70% # Number of insts issued each cycle (Count)
system.cpu.numIssuedDist::7                      4930      2.47%     98.17% # Number of insts issued each cycle (Count)
system.cpu.numIssuedDist::8                      3655      1.83%    100.00% # Number of insts issued each cycle (Count)
system.cpu.numIssuedDist::overflows                 0      0.00%    100.00% # Number of insts issued each cycle (Count)
system.cpu.numIssuedDist::min_value                 0                       # Number of insts issued each cycle (Count)
system.cpu.numIssuedDist::max_value                 8                       # Number of insts issued each cycle (Count)
system.cpu.numIssuedDist::total                199673                       # Number of insts issued each cycle (Count)
system.cpu.statFuBusy::No_OpClass                   0      0.00%      0.00% # attempts to use FU when none available (Count)
system.cpu.statFuBusy::IntAlu                    3238     71.35%     71.35% # attempts to use FU when none available (Count)
system.cpu.statFuBusy::IntMult                      0      0.00%     71.35% # attempts to use FU when none available (Count)
system.cpu.statFuBusy::IntDiv                       0      0.00%     71.35% # attempts to use FU when none available (Count)
system.cpu.statFuBusy::FloatAdd                     0      0.00%     71.35% # attempts to use FU when none available (Count)
system.cpu.statFuBusy::FloatCmp                     0      0.00%     71.35% # attempts to use FU when none available (Count)
system.cpu.statFuBusy::FloatCvt                     0      0.00%     71.35% # attempts to use FU when none available (Count)
system.cpu.statFuBusy::FloatMult                    0      0.00%     71.35% # attempts to use FU when none available (Count)
system.cpu.statFuBusy::FloatMultAcc                 0      0.00%     71.35% # attempts to use FU when none available (Count)
system.cpu.statFuBusy::FloatDiv                     0      0.00%     71.35% # attempts to use FU when none available (Count)
system.cpu.statFuBusy::FloatMisc                    0      0.00%     71.35% # attempts to use FU when none available (Count)
system.cpu.statFuBusy::FloatSqrt                    0      0.00%     71.35% # attempts to use FU when none available (Count)
system.cpu.statFuBusy::SimdAdd                      0      0.00%     71.35% # attempts to use FU when none available (Count)
system.cpu.statFuBusy::SimdAddAcc                   0      0.00%     71.35% # attempts to use FU when none available (Count)
system.cpu.statFuBusy::SimdAlu                     24      0.53%     71.88% # attempts to use FU when none available (Count)
system.cpu.statFuBusy::SimdCmp                      0      0.00%     71.88% # attempts to use FU when none available (Count)
system.cpu.statFuBusy::SimdCvt                      8      0.18%     72.06% # attempts to use FU when none available (Count)
system.cpu.statFuBusy::SimdMisc                     1      0.02%     72.08% # attempts to use FU when none available (Count)
system.cpu.statFuBusy::SimdMult                     0      0.00%     72.08% # attempts to use FU when none available (Count)
system.cpu.statFuBusy::SimdMultAcc                  0      0.00%     72.08% # attempts to use FU when none available (Count)
system.cpu.statFuBusy::SimdShift                   21      0.46%     72.54% # attempts to use FU when none available (Count)
system.cpu.statFuBusy::SimdShiftAcc                 0      0.00%     72.54% # attempts to use FU when none available (Count)
system.cpu.statFuBusy::SimdDiv                      0      0.00%     72.54% # attempts to use FU when none available (Count)
system.cpu.statFuBusy::SimdSqrt                     0      0.00%     72.54% # attempts to use FU when none available (Count)
system.cpu.statFuBusy::SimdFloatAdd                 0      0.00%     72.54% # attempts to use FU when none available (Count)
system.cpu.statFuBusy::SimdFloatAlu                 0      0.00%     72.54% # attempts to use FU when none available (Count)
system.cpu.statFuBusy::SimdFloatCmp                 0      0.00%     72.54% # attempts to use FU when none available (Count)
system.cpu.statFuBusy::SimdFloatCvt                 0      0.00%     72.54% # attempts to use FU when none available (Count)
system.cpu.statFuBusy::SimdFloatDiv                 0      0.00%     72.54% # attempts to use FU when none available (Count)
system.cpu.statFuBusy::SimdFloatMisc                0      0.00%     72.54% # attempts to use FU when none available (Count)
system.cpu.statFuBusy::SimdFloatMult                0      0.00%     72.54% # attempts to use FU when none available (Count)
system.cpu.statFuBusy::SimdFloatMultAcc             0      0.00%     72.54% # attempts to use FU when none available (Count)
system.cpu.statFuBusy::SimdFloatSqrt                0      0.00%     72.54% # attempts to use FU when none available (Count)
system.cpu.statFuBusy::SimdReduceAdd                0      0.00%     72.54% # attempts to use FU when none available (Count)
system.cpu.statFuBusy::SimdReduceAlu                0      0.00%     72.54% # attempts to use FU when none available (Count)
system.cpu.statFuBusy::SimdReduceCmp                0      0.00%     72.54% # attempts to use FU when none available (Count)
system.cpu.statFuBusy::SimdFloatReduceAdd            0      0.00%     72.54% # attempts to use FU when none available (Count)
system.cpu.statFuBusy::SimdFloatReduceCmp            0      0.00%     72.54% # attempts to use FU when none available (Count)
system.cpu.statFuBusy::SimdAes                      0      0.00%     72.54% # attempts to use FU when none available (Count)
system.cpu.statFuBusy::SimdAesMix                   0      0.00%     72.54% # attempts to use FU when none available (Count)
system.cpu.statFuBusy::SimdSha1Hash                 0      0.00%     72.54% # attempts to use FU when none available (Count)
system.cpu.statFuBusy::SimdSha1Hash2                0      0.00%     72.54% # attempts to use FU when none available (Count)
system.cpu.statFuBusy::SimdSha256Hash               0      0.00%     72.54% # attempts to use FU when none available (Count)
system.cpu.statFuBusy::SimdSha256Hash2              0      0.00%     72.54% # attempts to use FU when none available (Count)
system.cpu.statFuBusy::SimdShaSigma2                0      0.00%     72.54% # attempts to use FU when none available (Count)
system.cpu.statFuBusy::SimdShaSigma3                0      0.00%     72.54% # attempts to use FU when none available (Count)
system.cpu.statFuBusy::SimdPredAlu                  0      0.00%     72.54% # attempts to use FU when none available (Count)
system.cpu.statFuBusy::MemRead                    773     17.03%     89.58% # attempts to use FU when none available (Count)
system.cpu.statFuBusy::MemWrite                   432      9.52%     99.10% # attempts to use FU when none available (Count)
system.cpu.statFuBusy::FloatMemRead                14      0.31%     99.41% # attempts to use FU when none available (Count)
system.cpu.statFuBusy::FloatMemWrite               27      0.59%    100.00% # attempts to use FU when none available (Count)
system.cpu.statFuBusy::IprAccess                    0      0.00%    100.00% # attempts to use FU when none available (Count)
system.cpu.statFuBusy::InstPrefetch                 0      0.00%    100.00% # attempts to use FU when none available (Count)
system.cpu.statIssuedInstType_0::No_OpClass         3341      1.10%      1.10% # Number of instructions issued per FU type, per thread (Count)
system.cpu.statIssuedInstType_0::IntAlu        226564     74.47%     75.57% # Number of instructions issued per FU type, per thread (Count)
system.cpu.statIssuedInstType_0::IntMult           22      0.01%     75.57% # Number of instructions issued per FU type, per thread (Count)
system.cpu.statIssuedInstType_0::IntDiv          1976      0.65%     76.22% # Number of instructions issued per FU type, per thread (Count)
system.cpu.statIssuedInstType_0::FloatAdd          659      0.22%     76.44% # Number of instructions issued per FU type, per thread (Count)
system.cpu.statIssuedInstType_0::FloatCmp            0      0.00%     76.44% # Number of instructions issued per FU type, per thread (Count)
system.cpu.statIssuedInstType_0::FloatCvt            0      0.00%     76.44% # Number of instructions issued per FU type, per thread (Count)
system.cpu.statIssuedInstType_0::FloatMult            0      0.00%     76.44% # Number of instructions issued per FU type, per thread (Count)
system.cpu.statIssuedInstType_0::FloatMultAcc            0      0.00%     76.44% # Number of instructions issued per FU type, per thread (Count)
system.cpu.statIssuedInstType_0::FloatDiv            0      0.00%     76.44% # Number of instructions issued per FU type, per thread (Count)
system.cpu.statIssuedInstType_0::FloatMisc            0      0.00%     76.44% # Number of instructions issued per FU type, per thread (Count)
system.cpu.statIssuedInstType_0::FloatSqrt            0      0.00%     76.44% # Number of instructions issued per FU type, per thread (Count)
system.cpu.statIssuedInstType_0::SimdAdd          741      0.24%     76.68% # Number of instructions issued per FU type, per thread (Count)
system.cpu.statIssuedInstType_0::SimdAddAcc            0      0.00%     76.68% # Number of instructions issued per FU type, per thread (Count)
system.cpu.statIssuedInstType_0::SimdAlu         1901      0.62%     77.31% # Number of instructions issued per FU type, per thread (Count)
system.cpu.statIssuedInstType_0::SimdCmp            0      0.00%     77.31% # Number of instructions issued per FU type, per thread (Count)
system.cpu.statIssuedInstType_0::SimdCvt         1779      0.58%     77.89% # Number of instructions issued per FU type, per thread (Count)
system.cpu.statIssuedInstType_0::SimdMisc         1282      0.42%     78.32% # Number of instructions issued per FU type, per thread (Count)
system.cpu.statIssuedInstType_0::SimdMult            0      0.00%     78.32% # Number of instructions issued per FU type, per thread (Count)
system.cpu.statIssuedInstType_0::SimdMultAcc            0      0.00%     78.32% # Number of instructions issued per FU type, per thread (Count)
system.cpu.statIssuedInstType_0::SimdShift          623      0.20%     78.52% # Number of instructions issued per FU type, per thread (Count)
system.cpu.statIssuedInstType_0::SimdShiftAcc            0      0.00%     78.52% # Number of instructions issued per FU type, per thread (Count)
system.cpu.statIssuedInstType_0::SimdDiv            0      0.00%     78.52% # Number of instructions issued per FU type, per thread (Count)
system.cpu.statIssuedInstType_0::SimdSqrt            0      0.00%     78.52% # Number of instructions issued per FU type, per thread (Count)
system.cpu.statIssuedInstType_0::SimdFloatAdd            0      0.00%     78.52% # Number of instructions issued per FU type, per thread (Count)
system.cpu.statIssuedInstType_0::SimdFloatAlu            0      0.00%     78.52% # Number of instructions issued per FU type, per thread (Count)
system.cpu.statIssuedInstType_0::SimdFloatCmp            0      0.00%     78.52% # Number of instructions issued per FU type, per thread (Count)
system.cpu.statIssuedInstType_0::SimdFloatCvt            0      0.00%     78.52% # Number of instructions issued per FU type, per thread (Count)
system.cpu.statIssuedInstType_0::SimdFloatDiv            0      0.00%     78.52% # Number of instructions issued per FU type, per thread (Count)
system.cpu.statIssuedInstType_0::SimdFloatMisc            0      0.00%     78.52% # Number of instructions issued per FU type, per thread (Count)
system.cpu.statIssuedInstType_0::SimdFloatMult            0      0.00%     78.52% # Number of instructions issued per FU type, per thread (Count)
system.cpu.statIssuedInstType_0::SimdFloatMultAcc            0      0.00%     78.52% # Number of instructions issued per FU type, per thread (Count)
system.cpu.statIssuedInstType_0::SimdFloatSqrt            0      0.00%     78.52% # Number of instructions issued per FU type, per thread (Count)
system.cpu.statIssuedInstType_0::SimdReduceAdd            0      0.00%     78.52% # Number of instructions issued per FU type, per thread (Count)
system.cpu.statIssuedInstType_0::SimdReduceAlu            0      0.00%     78.52% # Number of instructions issued per FU type, per thread (Count)
system.cpu.statIssuedInstType_0::SimdReduceCmp            0      0.00%     78.52% # Number of instructions issued per FU type, per thread (Count)
system.cpu.statIssuedInstType_0::SimdFloatReduceAdd            0      0.00%     78.52% # Number of instructions issued per FU type, per thread (Count)
system.cpu.statIssuedInstType_0::SimdFloatReduceCmp            0      0.00%     78.52% # Number of instructions issued per FU type, per thread (Count)
system.cpu.statIssuedInstType_0::SimdAes            0      0.00%     78.52% # Number of instructions issued per FU type, per thread (Count)
system.cpu.statIssuedInstType_0::SimdAesMix            0      0.00%     78.52% # Number of instructions issued per FU type, per thread (Count)
system.cpu.statIssuedInstType_0::SimdSha1Hash            0      0.00%     78.52% # Number of instructions issued per FU type, per thread (Count)
system.cpu.statIssuedInstType_0::SimdSha1Hash2            0      0.00%     78.52% # Number of instructions issued per FU type, per thread (Count)
system.cpu.statIssuedInstType_0::SimdSha256Hash            0      0.00%     78.52% # Number of instructions issued per FU type, per thread (Count)
system.cpu.statIssuedInstType_0::SimdSha256Hash2            0      0.00%     78.52% # Number of instructions issued per FU type, per thread (Count)
system.cpu.statIssuedInstType_0::SimdShaSigma2            0      0.00%     78.52% # Number of instructions issued per FU type, per thread (Count)
system.cpu.statIssuedInstType_0::SimdShaSigma3            0      0.00%     78.52% # Number of instructions issued per FU type, per thread (Count)
system.cpu.statIssuedInstType_0::SimdPredAlu            0      0.00%     78.52% # Number of instructions issued per FU type, per thread (Count)
system.cpu.statIssuedInstType_0::MemRead        43924     14.44%     92.96% # Number of instructions issued per FU type, per thread (Count)
system.cpu.statIssuedInstType_0::MemWrite        17622      5.79%     98.75% # Number of instructions issued per FU type, per thread (Count)
system.cpu.statIssuedInstType_0::FloatMemRead         2525      0.83%     99.58% # Number of instructions issued per FU type, per thread (Count)
system.cpu.statIssuedInstType_0::FloatMemWrite         1279      0.42%    100.00% # Number of instructions issued per FU type, per thread (Count)
system.cpu.statIssuedInstType_0::IprAccess            0      0.00%    100.00% # Number of instructions issued per FU type, per thread (Count)
system.cpu.statIssuedInstType_0::InstPrefetch            0      0.00%    100.00% # Number of instructions issued per FU type, per thread (Count)
system.cpu.statIssuedInstType_0::total         304238                       # Number of instructions issued per FU type, per thread (Count)
system.cpu.issueRate                         1.294685                       # Inst issue rate ((Count/Cycle))
system.cpu.fuBusy                                4538                       # FU busy when requested (Count)
system.cpu.fuBusyRate                        0.014916                       # FU busy rate (busy events/executed inst) ((Count/Count))
system.cpu.intInstQueueReads                   790612                       # Number of integer instruction queue reads (Count)
system.cpu.intInstQueueWrites                  435417                       # Number of integer instruction queue writes (Count)
system.cpu.intInstQueueWakeupAccesses          284346                       # Number of integer instruction queue wakeup accesses (Count)
system.cpu.fpInstQueueReads                     22361                       # Number of floating instruction queue reads (Count)
system.cpu.fpInstQueueWrites                    19746                       # Number of floating instruction queue writes (Count)
system.cpu.fpInstQueueWakeupAccesses            10482                       # Number of floating instruction queue wakeup accesses (Count)
system.cpu.vecInstQueueReads                        0                       # Number of vector instruction queue reads (Count)
system.cpu.vecInstQueueWrites                       0                       # Number of vector instruction queue writes (Count)
system.cpu.vecInstQueueWakeupAccesses               0                       # Number of vector instruction queue wakeup accesses (Count)
system.cpu.intAluAccesses                      294231                       # Number of integer alu accesses (Count)
system.cpu.fpAluAccesses                        11204                       # Number of floating point alu accesses (Count)
system.cpu.vecAluAccesses                           0                       # Number of vector alu accesses (Count)
system.cpu.idleCycles                               0                       # Number of cycles IEW is idle (Cycle)
system.cpu.squashCycles                          2601                       # Number of cycles IEW is squashing (Cycle)
system.cpu.blockCycles                          51435                       # Number of cycles IEW is blocking (Cycle)
system.cpu.unblockCycles                         3076                       # Number of cycles IEW is unblocking (Cycle)
system.cpu.dispatchedInsts                     341247                       # Number of instructions dispatched to IQ (Count)
system.cpu.dispSquashedInsts                      482                       # Number of squashed instructions skipped by dispatch (Count)
system.cpu.dispLoadInsts                        48249                       # Number of dispatched load instructions (Count)
system.cpu.dispStoreInsts                       21052                       # Number of dispatched store instructions (Count)
system.cpu.dispNonSpecInsts                         5                       # Number of dispatched non-speculative instructions (Count)
system.cpu.iqFullEvents                           916                       # Number of times the IQ has become full, causing a stall (Count)
system.cpu.lsqFullEvents                         1769                       # Number of times the LSQ has become full, causing a stall (Count)
system.cpu.memOrderViolationEvents                 73                       # Number of memory order violations (Count)
system.cpu.predictedTakenIncorrect                560                       # Number of branches that were predicted taken incorrectly (Count)
system.cpu.predictedNotTakenIncorrect            2294                       # Number of branches that were predicted not taken incorrectly (Count)
system.cpu.branchMispredicts                     2854                       # Number of branch mispredicts detected at execute (Count)
system.cpu.numInsts                            299670                       # Number of executed instructions (Count)
system.cpu.numLoadInsts                         45429                       # Number of load instructions executed (Count)
system.cpu.numSquashedInsts                      4568                       # Number of squashed instructions skipped in execute (Count)
system.cpu.numSwp                                   0                       # Number of swp insts executed (Count)
system.cpu.numNop                                   0                       # Number of nop insts executed (Count)
system.cpu.numRefs                              63908                       # Number of memory reference insts executed (Count)
system.cpu.numBranches                          28124                       # Number of branches executed (Count)
system.cpu.numStoreInsts                        18479                       # Number of stores executed (Count)
system.cpu.numRate                           1.275246                       # Inst execution rate ((Count/Cycle))
system.cpu.instsToCommit                       296350                       # Cumulative count of insts sent to commit (Count)
system.cpu.writebackCount                      294828                       # Cumulative count of insts written-back (Count)
system.cpu.producerInst                        222029                       # Number of instructions producing a value (Count)
system.cpu.consumerInst                        387190                       # Number of instructions consuming a value (Count)
system.cpu.wbRate                            1.254641                       # Insts written-back per cycle ((Count/Cycle))
system.cpu.wbFanout                          0.573437                       # Average fanout of values written-back ((Count/Count))
system.cpu.timesIdled                             902                       # Number of times that the entire CPU went into an idle state and unscheduled itself (Count)
system.cpu.idleCycles                           35317                       # Total number of cycles that the CPU has spent unscheduled due to idling (Cycle)
system.cpu.committedInsts                      123064                       # Number of Instructions Simulated (Count)
system.cpu.committedOps                        227381                       # Number of Ops (including micro ops) Simulated (Count)
system.cpu.cpi                               1.909494                       # CPI: Cycles Per Instruction ((Cycle/Count))
system.cpu.totalCpi                          1.909494                       # CPI: Total CPI of All Threads ((Cycle/Count))
system.cpu.ipc                               0.523699                       # IPC: Instructions Per Cycle ((Count/Cycle))
system.cpu.totalIpc                          0.523699                       # IPC: Total IPC of All Threads ((Count/Cycle))
system.cpu.intRegfileReads                     441084                       # Number of integer regfile reads (Count)
system.cpu.intRegfileWrites                    241357                       # Number of integer regfile writes (Count)
system.cpu.fpRegfileReads                       15674                       # Number of floating regfile reads (Count)
system.cpu.fpRegfileWrites                       8476                       # Number of floating regfile writes (Count)
system.cpu.ccRegfileReads                      160234                       # number of cc regfile reads (Count)
system.cpu.ccRegfileWrites                     103438                       # number of cc regfile writes (Count)
system.cpu.miscRegfileReads                    123773                       # number of misc regfile reads (Count)
system.cpu.MemDepUnit__0.insertedLoads          48249                       # Number of loads inserted to the mem dependence unit. (Count)
system.cpu.MemDepUnit__0.insertedStores         21052                       # Number of stores inserted to the mem dependence unit. (Count)
system.cpu.MemDepUnit__0.conflictingLoads         1269                       # Number of conflicting loads. (Count)
system.cpu.MemDepUnit__0.conflictingStores          699                       # Number of conflicting stores. (Count)
system.cpu.MemDepUnit__1.insertedLoads              0                       # Number of loads inserted to the mem dependence unit. (Count)
system.cpu.MemDepUnit__1.insertedStores             0                       # Number of stores inserted to the mem dependence unit. (Count)
system.cpu.MemDepUnit__1.conflictingLoads            0                       # Number of conflicting loads. (Count)
system.cpu.MemDepUnit__1.conflictingStores            0                       # Number of conflicting stores. (Count)
system.cpu.MemDepUnit__2.insertedLoads              0                       # Number of loads inserted to the mem dependence unit. (Count)
system.cpu.MemDepUnit__2.insertedStores             0                       # Number of stores inserted to the mem dependence unit. (Count)
system.cpu.MemDepUnit__2.conflictingLoads            0                       # Number of conflicting loads. (Count)
system.cpu.MemDepUnit__2.conflictingStores            0                       # Number of conflicting stores. (Count)
system.cpu.MemDepUnit__3.insertedLoads              0                       # Number of loads inserted to the mem dependence unit. (Count)
system.cpu.MemDepUnit__3.insertedStores             0                       # Number of stores inserted to the mem dependence unit. (Count)
system.cpu.MemDepUnit__3.conflictingLoads            0                       # Number of conflicting loads. (Count)
system.cpu.MemDepUnit__3.conflictingStores            0                       # Number of conflicting stores. (Count)
system.cpu.branchPred.lookups                   39946                       # Number of BP lookups (Count)
system.cpu.branchPred.condPredicted             33615                       # Number of conditional branches predicted (Count)
system.cpu.branchPred.condIncorrect              2726                       # Number of conditional branches incorrect (Count)
system.cpu.branchPred.BTBLookups                15624                       # Number of BTB lookups (Count)
system.cpu.branchPred.BTBHits                   13965                       # Number of BTB hits (Count)
system.cpu.branchPred.BTBHitRatio            0.893817                       # BTB Hit Ratio (Ratio)
system.cpu.branchPred.RASUsed                    1725                       # Number of times the RAS was used to get a target. (Count)
system.cpu.branchPred.RASIncorrect                  4                       # Number of incorrect RAS predictions. (Count)
[...]
system.mem_ctrl.rdPerTurnAround::12                 1      1.79%      8.93% # Reads before turning the bus around for writes (Count)
system.mem_ctrl.rdPerTurnAround::13                 1      1.79%     10.71% # Reads before turning the bus around for writes (Count)
system.mem_ctrl.rdPerTurnAround::14                 2      3.57%     14.29% # Reads before turning the bus around for writes (Count)
system.mem_ctrl.rdPerTurnAround::15                13     23.21%     37.50% # Reads before turning the bus around for writes (Count)
system.mem_ctrl.rdPerTurnAround::16                29     51.79%     89.29% # Reads before turning the bus around for writes (Count)
system.mem_ctrl.rdPerTurnAround::17                 2      3.57%     92.86% # Reads before turning the bus around for writes (Count)
system.mem_ctrl.rdPerTurnAround::18                 2      3.57%     96.43% # Reads before turning the bus around for writes (Count)
system.mem_ctrl.rdPerTurnAround::19                 2      3.57%    100.00% # Reads before turning the bus around for writes (Count)
system.mem_ctrl.rdPerTurnAround::total             56                       # Reads before turning the bus around for writes (Count)
system.mem_ctrl.wrPerTurnAround::samples           56                       # Writes before turning the bus around for reads (Count)
system.mem_ctrl.wrPerTurnAround::mean       16.285714                       # Writes before turning the bus around for reads (Count)
system.mem_ctrl.wrPerTurnAround::gmean      16.265084                       # Writes before turning the bus around for reads (Count)
system.mem_ctrl.wrPerTurnAround::stdev       0.867898                       # Writes before turning the bus around for reads (Count)
system.mem_ctrl.wrPerTurnAround::16                50     89.29%     89.29% # Writes before turning the bus around for reads (Count)
system.mem_ctrl.wrPerTurnAround::18                 3      5.36%     94.64% # Writes before turning the bus around for reads (Count)
system.mem_ctrl.wrPerTurnAround::19                 2      3.57%     98.21% # Writes before turning the bus around for reads (Count)
system.mem_ctrl.wrPerTurnAround::20                 1      1.79%    100.00% # Writes before turning the bus around for reads (Count)
system.mem_ctrl.wrPerTurnAround::total             56                       # Writes before turning the bus around for reads (Count)
system.mem_ctrl.bytesReadWrQ                     3520                       # Total number of bytes read from write queue (Byte)
system.mem_ctrl.bytesReadSys                    58624                       # Total read bytes from the system interface side (Byte)
system.mem_ctrl.bytesWrittenSys                 58624                       # Total written bytes from the system interface side (Byte)
system.mem_ctrl.avgRdBWSys               82789630.96024899                       # Average system read bandwidth in Byte/s ((Byte/Second))
system.mem_ctrl.avgWrBWSys               82789630.96024899                       # Average system write bandwidth in Byte/s ((Byte/Second))
system.mem_ctrl.totGap                      727729000                       # Total gap between requests (Tick)
system.mem_ctrl.avgGap                      397231.99                       # Average gap between requests ((Tick/Count))
system.mem_ctrl.requestorReadBytes::caches.controllers1        55104                       # Per-requestor bytes read from memory (Byte)
system.mem_ctrl.requestorWriteBytes::caches.controllers1        58368                       # Per-requestor bytes write to memory (Byte)
system.mem_ctrl.requestorReadRate::caches.controllers1 77818637.834906533360                       # Per-requestor bytes read from memory rate ((Byte/Second))
system.mem_ctrl.requestorWriteRate::caches.controllers1 82428104.187496811152                       # Per-requestor bytes write to memory rate ((Byte/Second))
system.mem_ctrl.requestorReadAccesses::caches.controllers1          916                       # Per-requestor read serviced memory accesses (Count)
system.mem_ctrl.requestorWriteAccesses::caches.controllers1          916                       # Per-requestor write serviced memory accesses (Count)
system.mem_ctrl.requestorReadTotalLat::caches.controllers1     30897250                       # Per-requestor read total memory access latency (Tick)
system.mem_ctrl.requestorWriteTotalLat::caches.controllers1  17873132500                       # Per-requestor write total memory access latency (Tick)
system.mem_ctrl.requestorReadAvgLat::caches.controllers1     33730.62                       # Per-requestor read average memory access latency ((Tick/Count))
system.mem_ctrl.requestorWriteAvgLat::caches.controllers1  19512153.38                       # Per-requestor write average memory access latency ((Tick/Count))
system.mem_ctrl.dram.bytesRead::caches.controllers1        58624                       # Number of bytes read from this memory (Byte)
system.mem_ctrl.dram.bytesRead::total           58624                       # Number of bytes read from this memory (Byte)
system.mem_ctrl.dram.bytesWritten::caches.controllers1        58624                       # Number of bytes written to this memory (Byte)
system.mem_ctrl.dram.bytesWritten::total        58624                       # Number of bytes written to this memory (Byte)
system.mem_ctrl.dram.numReads::caches.controllers1          916                       # Number of read requests responded to by this memory (Count)
system.mem_ctrl.dram.numReads::total              916                       # Number of read requests responded to by this memory (Count)
system.mem_ctrl.dram.numWrites::caches.controllers1          916                       # Number of write requests responded to by this memory (Count)
system.mem_ctrl.dram.numWrites::total             916                       # Number of write requests responded to by this memory (Count)
system.mem_ctrl.dram.bwRead::caches.controllers1     82789631                       # Total read bandwidth from this memory ((Byte/Second))
system.mem_ctrl.dram.bwRead::total           82789631                       # Total read bandwidth from this memory ((Byte/Second))
system.mem_ctrl.dram.bwWrite::caches.controllers1     82789631                       # Write bandwidth from this memory ((Byte/Second))
system.mem_ctrl.dram.bwWrite::total          82789631                       # Write bandwidth from this memory ((Byte/Second))
system.mem_ctrl.dram.bwTotal::caches.controllers1    165579262                       # Total bandwidth to/from this memory ((Byte/Second))
system.mem_ctrl.dram.bwTotal::total         165579262                       # Total bandwidth to/from this memory ((Byte/Second))
system.mem_ctrl.dram.readBursts                   861                       # Number of DRAM read bursts (Count)
system.mem_ctrl.dram.writeBursts                  912                       # Number of DRAM write bursts (Count)
system.mem_ctrl.dram.perBankRdBursts::0            39                       # Per bank write bursts (Count)
system.mem_ctrl.dram.perBankRdBursts::1            70                       # Per bank write bursts (Count)
system.mem_ctrl.dram.perBankRdBursts::2           118                       # Per bank write bursts (Count)
system.mem_ctrl.dram.perBankRdBursts::3           184                       # Per bank write bursts (Count)
system.mem_ctrl.dram.perBankRdBursts::4            62                       # Per bank write bursts (Count)
system.mem_ctrl.dram.perBankRdBursts::5            42                       # Per bank write bursts (Count)
system.mem_ctrl.dram.perBankRdBursts::6            17                       # Per bank write bursts (Count)
system.mem_ctrl.dram.perBankRdBursts::7             5                       # Per bank write bursts (Count)
system.mem_ctrl.dram.perBankRdBursts::8            24                       # Per bank write bursts (Count)
system.mem_ctrl.dram.perBankRdBursts::9            28                       # Per bank write bursts (Count)
system.mem_ctrl.dram.perBankRdBursts::10           17                       # Per bank write bursts (Count)
system.mem_ctrl.dram.perBankRdBursts::11          134                       # Per bank write bursts (Count)
system.mem_ctrl.dram.perBankRdBursts::12           23                       # Per bank write bursts (Count)
system.mem_ctrl.dram.perBankRdBursts::13           13                       # Per bank write bursts (Count)
system.mem_ctrl.dram.perBankRdBursts::14           41                       # Per bank write bursts (Count)
system.mem_ctrl.dram.perBankRdBursts::15           44                       # Per bank write bursts (Count)
system.mem_ctrl.dram.perBankWrBursts::0           125                       # Per bank write bursts (Count)
system.mem_ctrl.dram.perBankWrBursts::1           129                       # Per bank write bursts (Count)
system.mem_ctrl.dram.perBankWrBursts::2           119                       # Per bank write bursts (Count)
system.mem_ctrl.dram.perBankWrBursts::3           135                       # Per bank write bursts (Count)
system.mem_ctrl.dram.perBankWrBursts::4            12                       # Per bank write bursts (Count)
system.mem_ctrl.dram.perBankWrBursts::5            17                       # Per bank write bursts (Count)
system.mem_ctrl.dram.perBankWrBursts::6             7                       # Per bank write bursts (Count)
system.mem_ctrl.dram.perBankWrBursts::7             1                       # Per bank write bursts (Count)
system.mem_ctrl.dram.perBankWrBursts::8             7                       # Per bank write bursts (Count)
system.mem_ctrl.dram.perBankWrBursts::9            12                       # Per bank write bursts (Count)
system.mem_ctrl.dram.perBankWrBursts::10           16                       # Per bank write bursts (Count)
system.mem_ctrl.dram.perBankWrBursts::11           95                       # Per bank write bursts (Count)
system.mem_ctrl.dram.perBankWrBursts::12           29                       # Per bank write bursts (Count)
system.mem_ctrl.dram.perBankWrBursts::13           27                       # Per bank write bursts (Count)
system.mem_ctrl.dram.perBankWrBursts::14           51                       # Per bank write bursts (Count)
system.mem_ctrl.dram.perBankWrBursts::15          130                       # Per bank write bursts (Count)
system.mem_ctrl.dram.totQLat                 14753500                       # Total ticks spent queuing (Tick)
system.mem_ctrl.dram.totBusLat                4305000                       # Total ticks spent in databus transfers (Tick)
system.mem_ctrl.dram.totMemAccLat            30897250                       # Total ticks spent from burst creation until serviced by the DRAM (Tick)
system.mem_ctrl.dram.avgQLat                 17135.31                       # Average queueing delay per DRAM burst ((Tick/Count))
system.mem_ctrl.dram.avgBusLat                5000.00                       # Average bus latency per DRAM burst ((Tick/Count))
system.mem_ctrl.dram.avgMemAccLat            35885.31                       # Average memory access latency per DRAM burst ((Tick/Count))
system.mem_ctrl.dram.readRowHits                  663                       # Number of row buffer hits during reads (Count)
system.mem_ctrl.dram.writeRowHits                 735                       # Number of row buffer hits during writes (Count)
system.mem_ctrl.dram.readRowHitRate             77.00                       # Row buffer hit rate for reads (Ratio)
system.mem_ctrl.dram.writeRowHitRate            80.59                       # Row buffer hit rate for writes (Ratio)
system.mem_ctrl.dram.bytesPerActivate::samples          374                       # Bytes accessed per row activation (Byte)
system.mem_ctrl.dram.bytesPerActivate::mean   303.229947                       # Bytes accessed per row activation (Byte)
system.mem_ctrl.dram.bytesPerActivate::gmean   195.654730                       # Bytes accessed per row activation (Byte)
system.mem_ctrl.dram.bytesPerActivate::stdev   294.430601                       # Bytes accessed per row activation (Byte)
system.mem_ctrl.dram.bytesPerActivate::0-127          111     29.68%     29.68% # Bytes accessed per row activation (Byte)
system.mem_ctrl.dram.bytesPerActivate::128-255          105     28.07%     57.75% # Bytes accessed per row activation (Byte)
system.mem_ctrl.dram.bytesPerActivate::256-383           54     14.44%     72.19% # Bytes accessed per row activation (Byte)
system.mem_ctrl.dram.bytesPerActivate::384-511           26      6.95%     79.14% # Bytes accessed per row activation (Byte)
system.mem_ctrl.dram.bytesPerActivate::512-639           15      4.01%     83.16% # Bytes accessed per row activation (Byte)
system.mem_ctrl.dram.bytesPerActivate::640-767           13      3.48%     86.63% # Bytes accessed per row activation (Byte)
system.mem_ctrl.dram.bytesPerActivate::768-895           15      4.01%     90.64% # Bytes accessed per row activation (Byte)
system.mem_ctrl.dram.bytesPerActivate::896-1023            9      2.41%     93.05% # Bytes accessed per row activation (Byte)
system.mem_ctrl.dram.bytesPerActivate::1024-1151           26      6.95%    100.00% # Bytes accessed per row activation (Byte)
system.mem_ctrl.dram.bytesPerActivate::total          374                       # Bytes accessed per row activation (Byte)
system.mem_ctrl.dram.bytesRead                  55104                       # Total number of bytes read from DRAM (Byte)
system.mem_ctrl.dram.bytesWritten               58368                       # Total number of bytes written to DRAM (Byte)
system.mem_ctrl.dram.avgRdBW                77.818638                       # Average DRAM read bandwidth in MiBytes/s ((Byte/Second))
system.mem_ctrl.dram.avgWrBW                82.428104                       # Average DRAM write bandwidth in MiBytes/s ((Byte/Second))
system.mem_ctrl.dram.peakBW                  12800.00                       # Theoretical peak bandwidth in MiByte/s ((Byte/Second))
system.mem_ctrl.dram.busUtil                     1.25                       # Data bus utilization in percentage (Ratio)
system.mem_ctrl.dram.busUtilRead                 0.61                       # Data bus utilization in percentage for reads (Ratio)
system.mem_ctrl.dram.busUtilWrite                0.64                       # Data bus utilization in percentage for writes (Ratio)
system.mem_ctrl.dram.pageHitRate                78.85                       # Row buffer hit rate, read and write combined (Ratio)
system.mem_ctrl.dram.power_state.pwrStateResidencyTicks::UNDEFINED    708108000                       # Cumulative time (in ticks) in various power states (Tick)
system.mem_ctrl.dram.rank0.actEnergy          1349460                       # Energy for activate commands per rank (pJ) (Joule)
system.mem_ctrl.dram.rank0.preEnergy           713460                       # Energy for precharge commands per rank (pJ) (Joule)
system.mem_ctrl.dram.rank0.readEnergy         3834180                       # Energy for read commands per rank (pJ) (Joule)
system.mem_ctrl.dram.rank0.writeEnergy        2844900                       # Energy for write commands per rank (pJ) (Joule)
system.mem_ctrl.dram.rank0.refreshEnergy 55932240.000000                       # Energy for refresh commands per rank (pJ) (Joule)
system.mem_ctrl.dram.rank0.actBackEnergy     62835660                       # Energy for active background per rank (pJ) (Joule)
system.mem_ctrl.dram.rank0.preBackEnergy    218999040                       # Energy for precharge background per rank (pJ) (Joule)
system.mem_ctrl.dram.rank0.actPowerDownEnergy            0                       # Energy for active power-down per rank (pJ) (Joule)
system.mem_ctrl.dram.rank0.prePowerDownEnergy            0                       # Energy for precharge power-down per rank (pJ) (Joule)
system.mem_ctrl.dram.rank0.selfRefreshEnergy            0                       # Energy for self refresh per rank (pJ) (Joule)
system.mem_ctrl.dram.rank0.totalEnergy      346508940                       # Total energy per rank (pJ) (Joule)
system.mem_ctrl.dram.rank0.averagePower    489.344761                       # Core power per rank (mW) (Watt)
system.mem_ctrl.dram.rank0.totalIdleTime            0                       # Total Idle time Per DRAM Rank (Tick)
system.mem_ctrl.dram.rank0.pwrStateTime::IDLE    568764000                       # Time in different power states (Tick)
system.mem_ctrl.dram.rank0.pwrStateTime::REF     23660000                       # Time in different power states (Tick)
system.mem_ctrl.dram.rank0.pwrStateTime::SREF            0                       # Time in different power states (Tick)
system.mem_ctrl.dram.rank0.pwrStateTime::PRE_PDN            0                       # Time in different power states (Tick)
system.mem_ctrl.dram.rank0.pwrStateTime::ACT    115684000                       # Time in different power states (Tick)
system.mem_ctrl.dram.rank0.pwrStateTime::ACT_PDN            0                       # Time in different power states (Tick)
system.mem_ctrl.dram.rank1.actEnergy          1328040                       # Energy for activate commands per rank (pJ) (Joule)
system.mem_ctrl.dram.rank1.preEnergy           705870                       # Energy for precharge commands per rank (pJ) (Joule)
system.mem_ctrl.dram.rank1.readEnergy         2313360                       # Energy for read commands per rank (pJ) (Joule)
system.mem_ctrl.dram.rank1.writeEnergy        1915740                       # Energy for write commands per rank (pJ) (Joule)
system.mem_ctrl.dram.rank1.refreshEnergy 55932240.000000                       # Energy for refresh commands per rank (pJ) (Joule)
system.mem_ctrl.dram.rank1.actBackEnergy     51310260                       # Energy for active background per rank (pJ) (Joule)
system.mem_ctrl.dram.rank1.preBackEnergy    228704640                       # Energy for precharge background per rank (pJ) (Joule)
system.mem_ctrl.dram.rank1.actPowerDownEnergy            0                       # Energy for active power-down per rank (pJ) (Joule)
system.mem_ctrl.dram.rank1.prePowerDownEnergy            0                       # Energy for precharge power-down per rank (pJ) (Joule)
system.mem_ctrl.dram.rank1.selfRefreshEnergy            0                       # Energy for self refresh per rank (pJ) (Joule)
system.mem_ctrl.dram.rank1.totalEnergy      342210150                       # Total energy per rank (pJ) (Joule)
system.mem_ctrl.dram.rank1.averagePower    483.273950                       # Core power per rank (mW) (Watt)
system.mem_ctrl.dram.rank1.totalIdleTime            0                       # Total Idle time Per DRAM Rank (Tick)
system.mem_ctrl.dram.rank1.pwrStateTime::IDLE    594052000                       # Time in different power states (Tick)
system.mem_ctrl.dram.rank1.pwrStateTime::REF     23660000                       # Time in different power states (Tick)
system.mem_ctrl.dram.rank1.pwrStateTime::SREF            0                       # Time in different power states (Tick)
system.mem_ctrl.dram.rank1.pwrStateTime::PRE_PDN            0                       # Time in different power states (Tick)
system.mem_ctrl.dram.rank1.pwrStateTime::ACT     90396000                       # Time in different power states (Tick)
system.mem_ctrl.dram.rank1.pwrStateTime::ACT_PDN            0                       # Time in different power states (Tick)
system.mem_ctrl.power_state.pwrStateResidencyTicks::UNDEFINED    708108000                       # Cumulative time (in ticks) in various power states (Tick)
system.workload.inst.arm                            0                       # number of arm instructions executed (Count)
system.workload.inst.quiesce                        0                       # number of quiesce instructions executed (Count)

---------- End Simulation Statistics   ----------
