Global frequency set at 1000000000000 ticks per second
build/X86/mem/mem_interface.cc:791: warn: DRAM device capacity (8192 Mbytes) does not match the address range assigned (512 Mbytes)
build/X86/base/statistics.hh:277: warn: One of the stats is a legacy stat. Legacy stat is a stat that does not belong to any statistics::Group. Legacy stat is deprecated.
build/X86/base/remote_gdb.cc:377: warn: Sockets disabled, not accepting gdb connections
gem5 Simulator System.  http://gem5.org
gem5 is copyrighted software; use the --copyright option for details.

gem5 version 21.1.0.2
gem5 compiled Dec 11 2021 19:27:41
gem5 started Dec 17 2021 17:30:11
gem5 executing on tvirt, pid 11829
command line: /home/hayden/proj/cs752/cache/gem5Public/gem5/build/X86/gem5.opt ../../../../python/simple_ruby.py ../../lem-in --input=../../maps/big_superposition --rp=LFURP

info: Standard input is not a terminal, disabling listeners.
Beginning simulation!
warn: None.memory is deprecated. The request port for Ruby memory output to the main memory is now called `memory_out_port`
warn: system.caches.network adopting orphan SimObject param 'int_links'
warn: No dot file generated. Please install pydot to generate the dot file and pdf.
build/X86/sim/simulate.cc:107: info: Entering event queue @ 0.  Starting simulation...
build/X86/mem/ruby/system/Sequencer.cc:575: warn: Replacement policy updates recently became the responsibility of SLICC state machines. Make sure to setMRU() near callbacks in .sm files!
build/X86/arch/x86/cpuid.cc:180: warn: x86 cpuid family 0x0000: unimplemented function 13
build/X86/sim/syscall_emul.cc:73: warn: ignoring syscall access(...)
build/X86/sim/mem_state.cc:443: info: Increasing stack size by one page.
build/X86/sim/syscall_emul.cc:73: warn: ignoring syscall mprotect(...)
build/X86/sim/syscall_emul.cc:73: warn: ignoring syscall mprotect(...)
build/X86/sim/syscall_emul.cc:73: warn: ignoring syscall mprotect(...)
build/X86/sim/syscall_emul.cc:73: warn: ignoring syscall mprotect(...)
build/X86/sim/mem_state.cc:443: info: Increasing stack size by one page.
build/X86/sim/mem_state.cc:443: info: Increasing stack size by one page.
build/X86/sim/mem_state.cc:443: info: Increasing stack size by one page.
build/X86/sim/mem_state.cc:443: info: Increasing stack size by one page.
build/X86/sim/mem_state.cc:443: info: Increasing stack size by one page.
build/X86/sim/mem_state.cc:443: info: Increasing stack size by one page.
build/X86/sim/mem_state.cc:443: info: Increasing stack size by one page.
build/X86/sim/mem_state.cc:443: info: Increasing stack size by one page.
build/X86/sim/mem_state.cc:443: info: Increasing stack size by one page.
build/X86/sim/mem_state.cc:443: info: Increasing stack size by one page.
build/X86/sim/mem_state.cc:443: info: Increasing stack size by one page.
build/X86/sim/mem_state.cc:443: info: Increasing stack size by one page.
build/X86/sim/mem_state.cc:443: info: Increasing stack size by one page.
build/X86/sim/mem_state.cc:443: info: Increasing stack size by one page.
build/X86/sim/mem_state.cc:443: info: Increasing stack size by one page.
build/X86/sim/mem_state.cc:443: info: Increasing stack size by one page.
build/X86/sim/mem_state.cc:443: info: Increasing stack size by one page.
build/X86/sim/mem_state.cc:443: info: Increasing stack size by one page.
build/X86/sim/mem_state.cc:443: info: Increasing stack size by one page.
build/X86/sim/mem_state.cc:443: info: Increasing stack size by one page.
build/X86/sim/mem_state.cc:443: info: Increasing stack size by one page.
build/X86/sim/mem_state.cc:443: info: Increasing stack size by one page.
build/X86/sim/mem_state.cc:443: info: Increasing stack size by one page.
build/X86/sim/mem_state.cc:443: info: Increasing stack size by one page.
build/X86/sim/mem_state.cc:443: info: Increasing stack size by one page.
build/X86/sim/mem_state.cc:443: info: Increasing stack size by one page.
build/X86/sim/mem_state.cc:443: info: Increasing stack size by one page.
build/X86/sim/mem_state.cc:443: info: Increasing stack size by one page.
build/X86/sim/mem_state.cc:443: info: Increasing stack size by one page.
build/X86/sim/mem_state.cc:443: info: Increasing stack size by one page.
build/X86/sim/mem_state.cc:443: info: Increasing stack size by one page.
build/X86/sim/mem_state.cc:443: info: Increasing stack size by one page.
build/X86/sim/mem_state.cc:443: info: Increasing stack size by one page.
build/X86/sim/mem_state.cc:443: info: Increasing stack size by one page.
build/X86/sim/mem_state.cc:443: info: Increasing stack size by one page.
build/X86/sim/mem_state.cc:443: info: Increasing stack size by one page.
build/X86/sim/mem_state.cc:443: info: Increasing stack size by one page.
build/X86/sim/mem_state.cc:443: info: Increasing stack size by one page.
build/X86/sim/mem_state.cc:443: info: Increasing stack size by one page.
build/X86/sim/mem_state.cc:443: info: Increasing stack size by one page.
build/X86/sim/mem_state.cc:443: info: Increasing stack size by one page.
build/X86/sim/mem_state.cc:443: info: Increasing stack size by one page.
build/X86/sim/mem_state.cc:443: info: Increasing stack size by one page.
build/X86/sim/mem_state.cc:443: info: Increasing stack size by one page.
build/X86/sim/mem_state.cc:443: info: Increasing stack size by one page.
build/X86/sim/mem_state.cc:443: info: Increasing stack size by one page.
build/X86/sim/mem_state.cc:443: info: Increasing stack size by one page.
build/X86/sim/mem_state.cc:443: info: Increasing stack size by one page.
build/X86/sim/mem_state.cc:443: info: Increasing stack size by one page.
build/X86/sim/mem_state.cc:443: info: Increasing stack size by one page.
build/X86/sim/mem_state.cc:443: info: Increasing stack size by one page.
build/X86/sim/mem_state.cc:443: info: Increasing stack size by one page.
build/X86/sim/mem_state.cc:443: info: Increasing stack size by one page.
build/X86/sim/mem_state.cc:443: info: Increasing stack size by one page.
build/X86/sim/mem_state.cc:443: info: Increasing stack size by one page.
build/X86/sim/mem_state.cc:443: info: Increasing stack size by one page.
build/X86/sim/mem_state.cc:443: info: Increasing stack size by one page.
build/X86/sim/mem_state.cc:443: info: Increasing stack size by one page.
build/X86/sim/mem_state.cc:443: info: Increasing stack size by one page.
build/X86/sim/mem_state.cc:443: info: Increasing stack size by one page.
build/X86/sim/mem_state.cc:443: info: Increasing stack size by one page.
build/X86/sim/mem_state.cc:443: info: Increasing stack size by one page.
build/X86/sim/mem_state.cc:443: info: Increasing stack size by one page.
build/X86/sim/mem_state.cc:443: info: Increasing stack size by one page.
build/X86/sim/mem_state.cc:443: info: Increasing stack size by one page.
build/X86/sim/mem_state.cc:443: info: Increasing stack size by one page.
build/X86/sim/mem_state.cc:443: info: Increasing stack size by one page.
build/X86/sim/mem_state.cc:443: info: Increasing stack size by one page.
build/X86/sim/mem_state.cc:443: info: Increasing stack size by one page.
build/X86/sim/mem_state.cc:443: info: Increasing stack size by one page.
build/X86/sim/mem_state.cc:443: info: Increasing stack size by one page.
build/X86/sim/mem_state.cc:443: info: Increasing stack size by one page.
build/X86/sim/mem_state.cc:443: info: Increasing stack size by one page.
build/X86/sim/mem_state.cc:443: info: Increasing stack size by one page.
build/X86/sim/mem_state.cc:443: info: Increasing stack size by one page.
build/X86/sim/mem_state.cc:443: info: Increasing stack size by one page.
build/X86/sim/mem_state.cc:443: info: Increasing stack size by one page.
build/X86/sim/mem_state.cc:443: info: Increasing stack size by one page.
build/X86/sim/mem_state.cc:443: info: Increasing stack size by one page.
build/X86/sim/mem_state.cc:443: info: Increasing stack size by one page.
build/X86/sim/mem_state.cc:443: info: Increasing stack size by one page.
build/X86/sim/mem_state.cc:443: info: Increasing stack size by one page.
build/X86/sim/mem_state.cc:443: info: Increasing stack size by one page.
build/X86/sim/mem_state.cc:443: info: Increasing stack size by one page.
build/X86/sim/mem_state.cc:443: info: Increasing stack size by one page.
build/X86/sim/mem_state.cc:443: info: Increasing stack size by one page.
build/X86/sim/mem_state.cc:443: info: Increasing stack size by one page.
build/X86/sim/mem_state.cc:443: info: Increasing stack size by one page.
build/X86/sim/mem_state.cc:443: info: Increasing stack size by one page.
build/X86/sim/mem_state.cc:443: info: Increasing stack size by one page.
build/X86/sim/mem_state.cc:443: info: Increasing stack size by one page.
build/X86/sim/mem_state.cc:443: info: Increasing stack size by one page.
build/X86/sim/mem_state.cc:443: info: Increasing stack size by one page.
build/X86/sim/mem_state.cc:443: info: Increasing stack size by one page.
build/X86/sim/mem_state.cc:443: info: Increasing stack size by one page.
build/X86/sim/mem_state.cc:443: info: Increasing stack size by one page.
build/X86/sim/mem_state.cc:443: info: Increasing stack size by one page.
build/X86/sim/mem_state.cc:443: info: Increasing stack size by one page.
build/X86/sim/mem_state.cc:443: info: Increasing stack size by one page.
build/X86/sim/mem_state.cc:443: info: Increasing stack size by one page.
build/X86/sim/mem_state.cc:443: info: Increasing stack size by one page.
build/X86/sim/mem_state.cc:443: info: Increasing stack size by one page.
build/X86/sim/mem_state.cc:443: info: Increasing stack size by one page.
build/X86/sim/mem_state.cc:443: info: Increasing stack size by one page.
build/X86/sim/mem_state.cc:443: info: Increasing stack size by one page.
build/X86/sim/mem_state.cc:443: info: Increasing stack size by one page.
build/X86/sim/mem_state.cc:443: info: Increasing stack size by one page.
build/X86/sim/mem_state.cc:443: info: Increasing stack size by one page.
build/X86/sim/mem_state.cc:443: info: Increasing stack size by one page.
build/X86/sim/mem_state.cc:443: info: Increasing stack size by one page.
build/X86/sim/mem_state.cc:443: info: Increasing stack size by one page.
build/X86/sim/mem_state.cc:443: info: Increasing stack size by one page.
build/X86/sim/mem_state.cc:443: info: Increasing stack size by one page.
build/X86/sim/mem_state.cc:443: info: Increasing stack size by one page.
build/X86/sim/mem_state.cc:443: info: Increasing stack size by one page.
build/X86/sim/mem_state.cc:443: info: Increasing stack size by one page.
build/X86/sim/mem_state.cc:443: info: Increasing stack size by one page.
Terminated
Global frequency set at 1000000000000 ticks per second
build/X86/mem/mem_interface.cc:791: warn: DRAM device capacity (8192 Mbytes) does not match the address range assigned (512 Mbytes)
build/X86/base/statistics.hh:277: warn: One of the stats is a legacy stat. Legacy stat is a stat that does not belong to any statistics::Group. Legacy stat is deprecated.
build/X86/base/remote_gdb.cc:377: warn: Sockets disabled, not accepting gdb connections
gem5 Simulator System.  http://gem5.org
gem5 is copyrighted software; use the --copyright option for details.

gem5 version 21.1.0.2
gem5 compiled Dec 11 2021 19:27:41
gem5 started Dec 18 2021 04:22:19
gem5 executing on tvirt, pid 4902
command line: /home/hayden/proj/cs752/cache/gem5Public/gem5/build/X86/gem5.opt ../../../../python/simple_ruby.py ../../lem-in --input=../../maps/big_superposition --rp=LFURP

info: Standard input is not a terminal, disabling listeners.
Beginning simulation!
warn: None.memory is deprecated. The request port for Ruby memory output to the main memory is now called `memory_out_port`
warn: system.caches.network adopting orphan SimObject param 'int_links'
warn: No dot file generated. Please install pydot to generate the dot file and pdf.
build/X86/sim/simulate.cc:107: info: Entering event queue @ 0.  Starting simulation...
build/X86/mem/ruby/system/Sequencer.cc:575: warn: Replacement policy updates recently became the responsibility of SLICC state machines. Make sure to setMRU() near callbacks in .sm files!
build/X86/arch/x86/cpuid.cc:180: warn: x86 cpuid family 0x0000: unimplemented function 13
build/X86/sim/syscall_emul.cc:73: warn: ignoring syscall access(...)
build/X86/sim/mem_state.cc:443: info: Increasing stack size by one page.
build/X86/sim/syscall_emul.cc:73: warn: ignoring syscall mprotect(...)
build/X86/sim/syscall_emul.cc:73: warn: ignoring syscall mprotect(...)
build/X86/sim/syscall_emul.cc:73: warn: ignoring syscall mprotect(...)
build/X86/sim/syscall_emul.cc:73: warn: ignoring syscall mprotect(...)
build/X86/sim/mem_state.cc:443: info: Increasing stack size by one page.
build/X86/sim/mem_state.cc:443: info: Increasing stack size by one page.
build/X86/sim/mem_state.cc:443: info: Increasing stack size by one page.
build/X86/sim/mem_state.cc:443: info: Increasing stack size by one page.
build/X86/sim/mem_state.cc:443: info: Increasing stack size by one page.
build/X86/sim/mem_state.cc:443: info: Increasing stack size by one page.
build/X86/sim/mem_state.cc:443: info: Increasing stack size by one page.
build/X86/sim/mem_state.cc:443: info: Increasing stack size by one page.
build/X86/sim/mem_state.cc:443: info: Increasing stack size by one page.
build/X86/sim/mem_state.cc:443: info: Increasing stack size by one page.
build/X86/sim/mem_state.cc:443: info: Increasing stack size by one page.
build/X86/sim/mem_state.cc:443: info: Increasing stack size by one page.
build/X86/sim/mem_state.cc:443: info: Increasing stack size by one page.
build/X86/sim/mem_state.cc:443: info: Increasing stack size by one page.
build/X86/sim/mem_state.cc:443: info: Increasing stack size by one page.
build/X86/sim/mem_state.cc:443: info: Increasing stack size by one page.
build/X86/sim/mem_state.cc:443: info: Increasing stack size by one page.
build/X86/sim/mem_state.cc:443: info: Increasing stack size by one page.
build/X86/sim/mem_state.cc:443: info: Increasing stack size by one page.
build/X86/sim/mem_state.cc:443: info: Increasing stack size by one page.
build/X86/sim/mem_state.cc:443: info: Increasing stack size by one page.
build/X86/sim/mem_state.cc:443: info: Increasing stack size by one page.
build/X86/sim/mem_state.cc:443: info: Increasing stack size by one page.
build/X86/sim/mem_state.cc:443: info: Increasing stack size by one page.
build/X86/sim/mem_state.cc:443: info: Increasing stack size by one page.
build/X86/sim/mem_state.cc:443: info: Increasing stack size by one page.
build/X86/sim/mem_state.cc:443: info: Increasing stack size by one page.
build/X86/sim/mem_state.cc:443: info: Increasing stack size by one page.
build/X86/sim/mem_state.cc:443: info: Increasing stack size by one page.
build/X86/sim/mem_state.cc:443: info: Increasing stack size by one page.
build/X86/sim/mem_state.cc:443: info: Increasing stack size by one page.
build/X86/sim/mem_state.cc:443: info: Increasing stack size by one page.
build/X86/sim/mem_state.cc:443: info: Increasing stack size by one page.
build/X86/sim/mem_state.cc:443: info: Increasing stack size by one page.
build/X86/sim/mem_state.cc:443: info: Increasing stack size by one page.
build/X86/sim/mem_state.cc:443: info: Increasing stack size by one page.
build/X86/sim/mem_state.cc:443: info: Increasing stack size by one page.
build/X86/sim/mem_state.cc:443: info: Increasing stack size by one page.
build/X86/sim/mem_state.cc:443: info: Increasing stack size by one page.
build/X86/sim/mem_state.cc:443: info: Increasing stack size by one page.
build/X86/sim/mem_state.cc:443: info: Increasing stack size by one page.
build/X86/sim/mem_state.cc:443: info: Increasing stack size by one page.
build/X86/sim/mem_state.cc:443: info: Increasing stack size by one page.
build/X86/sim/mem_state.cc:443: info: Increasing stack size by one page.
build/X86/sim/mem_state.cc:443: info: Increasing stack size by one page.
build/X86/sim/mem_state.cc:443: info: Increasing stack size by one page.
build/X86/sim/mem_state.cc:443: info: Increasing stack size by one page.
build/X86/sim/mem_state.cc:443: info: Increasing stack size by one page.
build/X86/sim/mem_state.cc:443: info: Increasing stack size by one page.
build/X86/sim/mem_state.cc:443: info: Increasing stack size by one page.
build/X86/sim/mem_state.cc:443: info: Increasing stack size by one page.
build/X86/sim/mem_state.cc:443: info: Increasing stack size by one page.
build/X86/sim/mem_state.cc:443: info: Increasing stack size by one page.
build/X86/sim/mem_state.cc:443: info: Increasing stack size by one page.
build/X86/sim/mem_state.cc:443: info: Increasing stack size by one page.
build/X86/sim/mem_state.cc:443: info: Increasing stack size by one page.
build/X86/sim/mem_state.cc:443: info: Increasing stack size by one page.
build/X86/sim/mem_state.cc:443: info: Increasing stack size by one page.
build/X86/sim/mem_state.cc:443: info: Increasing stack size by one page.
build/X86/sim/mem_state.cc:443: info: Increasing stack size by one page.
build/X86/sim/mem_state.cc:443: info: Increasing stack size by one page.
build/X86/sim/mem_state.cc:443: info: Increasing stack size by one page.
build/X86/sim/mem_state.cc:443: info: Increasing stack size by one page.
build/X86/sim/mem_state.cc:443: info: Increasing stack size by one page.
build/X86/sim/mem_state.cc:443: info: Increasing stack size by one page.
build/X86/sim/mem_state.cc:443: info: Increasing stack size by one page.
build/X86/sim/mem_state.cc:443: info: Increasing stack size by one page.
build/X86/sim/mem_state.cc:443: info: Increasing stack size by one page.
build/X86/sim/mem_state.cc:443: info: Increasing stack size by one page.
build/X86/sim/mem_state.cc:443: info: Increasing stack size by one page.
build/X86/sim/mem_state.cc:443: info: Increasing stack size by one page.
build/X86/sim/mem_state.cc:443: info: Increasing stack size by one page.
build/X86/sim/mem_state.cc:443: info: Increasing stack size by one page.
build/X86/sim/mem_state.cc:443: info: Increasing stack size by one page.
build/X86/sim/mem_state.cc:443: info: Increasing stack size by one page.
build/X86/sim/mem_state.cc:443: info: Increasing stack size by one page.
build/X86/sim/mem_state.cc:443: info: Increasing stack size by one page.
build/X86/sim/mem_state.cc:443: info: Increasing stack size by one page.
build/X86/sim/mem_state.cc:443: info: Increasing stack size by one page.
build/X86/sim/mem_state.cc:443: info: Increasing stack size by one page.
build/X86/sim/mem_state.cc:443: info: Increasing stack size by one page.
build/X86/sim/mem_state.cc:443: info: Increasing stack size by one page.
build/X86/sim/mem_state.cc:443: info: Increasing stack size by one page.
build/X86/sim/mem_state.cc:443: info: Increasing stack size by one page.
build/X86/sim/mem_state.cc:443: info: Increasing stack size by one page.
build/X86/sim/mem_state.cc:443: info: Increasing stack size by one page.
build/X86/sim/mem_state.cc:443: info: Increasing stack size by one page.
build/X86/sim/mem_state.cc:443: info: Increasing stack size by one page.
build/X86/sim/mem_state.cc:443: info: Increasing stack size by one page.
build/X86/sim/mem_state.cc:443: info: Increasing stack size by one page.
build/X86/sim/mem_state.cc:443: info: Increasing stack size by one page.
build/X86/sim/mem_state.cc:443: info: Increasing stack size by one page.
build/X86/sim/mem_state.cc:443: info: Increasing stack size by one page.
build/X86/sim/mem_state.cc:443: info: Increasing stack size by one page.
build/X86/sim/mem_state.cc:443: info: Increasing stack size by one page.
build/X86/sim/mem_state.cc:443: info: Increasing stack size by one page.
build/X86/sim/mem_state.cc:443: info: Increasing stack size by one page.
build/X86/sim/mem_state.cc:443: info: Increasing stack size by one page.
build/X86/sim/mem_state.cc:443: info: Increasing stack size by one page.
build/X86/sim/mem_state.cc:443: info: Increasing stack size by one page.
build/X86/sim/mem_state.cc:443: info: Increasing stack size by one page.
build/X86/sim/mem_state.cc:443: info: Increasing stack size by one page.
build/X86/sim/mem_state.cc:443: info: Increasing stack size by one page.
build/X86/sim/mem_state.cc:443: info: Increasing stack size by one page.
build/X86/sim/mem_state.cc:443: info: Increasing stack size by one page.
build/X86/sim/mem_state.cc:443: info: Increasing stack size by one page.
build/X86/sim/mem_state.cc:443: info: Increasing stack size by one page.
build/X86/sim/mem_state.cc:443: info: Increasing stack size by one page.
build/X86/sim/mem_state.cc:443: info: Increasing stack size by one page.
build/X86/sim/mem_state.cc:443: info: Increasing stack size by one page.
build/X86/sim/mem_state.cc:443: info: Increasing stack size by one page.
build/X86/sim/mem_state.cc:443: info: Increasing stack size by one page.
build/X86/sim/mem_state.cc:443: info: Increasing stack size by one page.
build/X86/sim/mem_state.cc:443: info: Increasing stack size by one page.
build/X86/sim/mem_state.cc:443: info: Increasing stack size by one page.
build/X86/sim/mem_state.cc:443: info: Increasing stack size by one page.
build/X86/sim/mem_state.cc:443: info: Increasing stack size by one page.
