
---------- Begin Simulation Statistics ----------
simSeconds                                   0.012092                       # Number of seconds simulated (Second)
simTicks                                  12092415000                       # Number of ticks simulated (Tick)
finalTick                                 41917884000                       # Number of ticks from beginning of simulation (restored from checkpoints and never reset) (Tick)
simFreq                                  1000000000000                       # The number of ticks per simulated second ((Tick/Second))
hostSeconds                                     33.62                       # Real time elapsed on the host (Second)
hostTickRate                                359667046                       # The number of ticks simulated per host second (ticks/s) ((Tick/Second))
hostMemory                                    9646220                       # Number of bytes of host memory used (Byte)
simInsts                                      6464554                       # Number of instructions simulated (Count)
simOps                                       12337784                       # Number of ops (including micro ops) simulated (Count)
hostInstRate                                   192275                       # Simulator instruction rate (inst/s) ((Count/Second))
hostOpRate                                     366963                       # Simulator op (including micro ops) rate (op/s) ((Count/Second))
system.caches.delayHistogram::bucket_size            4                       # delay histogram for all message
system.caches.delayHistogram::max_bucket           39                       # delay histogram for all message
system.caches.delayHistogram::samples         2698671                       # delay histogram for all message
system.caches.delayHistogram::mean           0.859271                       # delay histogram for all message
system.caches.delayHistogram::stdev          2.180428                       # delay histogram for all message
system.caches.delayHistogram             |     2323391     86.09%     86.09% |      366504     13.58%     99.67% |        5022      0.19%     99.86% |         175      0.01%     99.87% |        2042      0.08%     99.94% |         314      0.01%     99.95% |        1035      0.04%     99.99% |         119      0.00%    100.00% |          69      0.00%    100.00% |           0      0.00%    100.00% # delay histogram for all message (Unspecified)
system.caches.delayHistogram::total           2698671                       # delay histogram for all message
system.caches.m_outstandReqHistSeqr::bucket_size            1                      
system.caches.m_outstandReqHistSeqr::max_bucket            9                      
system.caches.m_outstandReqHistSeqr::samples      1048594                      
system.caches.m_outstandReqHistSeqr::mean     1.000048                      
system.caches.m_outstandReqHistSeqr::gmean     1.000027                      
system.caches.m_outstandReqHistSeqr::stdev     0.010518                      
system.caches.m_outstandReqHistSeqr      |           0      0.00%      0.00% |     1048561    100.00%    100.00% |          23      0.00%    100.00% |           8      0.00%    100.00% |           0      0.00%    100.00% |           0      0.00%    100.00% |           1      0.00%    100.00% |           1      0.00%    100.00% |           0      0.00%    100.00% |           0      0.00%    100.00% (Unspecified)
system.caches.m_outstandReqHistSeqr::total      1048594                      
system.caches.m_latencyHistSeqr::bucket_size           64                      
system.caches.m_latencyHistSeqr::max_bucket          639                      
system.caches.m_latencyHistSeqr::samples      1048594                      
system.caches.m_latencyHistSeqr::mean        9.532772                      
system.caches.m_latencyHistSeqr::gmean       1.680015                      
system.caches.m_latencyHistSeqr::stdev      27.299451                      
system.caches.m_latencyHistSeqr          |     1031883     98.41%     98.41% |        7126      0.68%     99.09% |        2644      0.25%     99.34% |        5388      0.51%     99.85% |        1108      0.11%     99.96% |         331      0.03%     99.99% |           2      0.00%     99.99% |          41      0.00%     99.99% |          71      0.01%    100.00% |           0      0.00%    100.00% (Unspecified)
system.caches.m_latencyHistSeqr::total        1048594                      
system.caches.m_hitLatencyHistSeqr::bucket_size            1                      
system.caches.m_hitLatencyHistSeqr::max_bucket            9                      
system.caches.m_hitLatencyHistSeqr::samples       917503                      
system.caches.m_hitLatencyHistSeqr::mean            1                      
system.caches.m_hitLatencyHistSeqr::gmean            1                      
system.caches.m_hitLatencyHistSeqr       |           0      0.00%      0.00% |      917503    100.00%    100.00% |           0      0.00%    100.00% |           0      0.00%    100.00% |           0      0.00%    100.00% |           0      0.00%    100.00% |           0      0.00%    100.00% |           0      0.00%    100.00% |           0      0.00%    100.00% |           0      0.00%    100.00% (Unspecified)
system.caches.m_hitLatencyHistSeqr::total       917503                      
system.caches.m_missLatencyHistSeqr::bucket_size           64                      
system.caches.m_missLatencyHistSeqr::max_bucket          639                      
system.caches.m_missLatencyHistSeqr::samples       131091                      
system.caches.m_missLatencyHistSeqr::mean    69.253458                      
system.caches.m_missLatencyHistSeqr::gmean    63.427247                      
system.caches.m_missLatencyHistSeqr::stdev    43.418704                      
system.caches.m_missLatencyHistSeqr      |      114380     87.25%     87.25% |        7126      5.44%     92.69% |        2644      2.02%     94.71% |        5388      4.11%     98.82% |        1108      0.85%     99.66% |         331      0.25%     99.91% |           2      0.00%     99.91% |          41      0.03%     99.95% |          71      0.05%    100.00% |           0      0.00%    100.00% (Unspecified)
system.caches.m_missLatencyHistSeqr::total       131091                      
system.caches.delayVCHist.vnet_1::bucket_size            2                       # delay histogram for vnet_1
system.caches.delayVCHist.vnet_1::max_bucket           19                       # delay histogram for vnet_1
system.caches.delayVCHist.vnet_1::samples      1349351                       # delay histogram for vnet_1
system.caches.delayVCHist.vnet_1::mean       0.059349                       # delay histogram for vnet_1
system.caches.delayVCHist.vnet_1::stdev      0.570566                       # delay histogram for vnet_1
system.caches.delayVCHist.vnet_1         |     1329793     98.55%     98.55% |        9982      0.74%     99.29% |        2648      0.20%     99.49% |        3013      0.22%     99.71% |        3885      0.29%    100.00% |          12      0.00%    100.00% |           2      0.00%    100.00% |          16      0.00%    100.00% |           0      0.00%    100.00% |           0      0.00%    100.00% # delay histogram for vnet_1 (Unspecified)
system.caches.delayVCHist.vnet_1::total       1349351                       # delay histogram for vnet_1
system.caches.delayVCHist.vnet_2::bucket_size            4                       # delay histogram for vnet_2
system.caches.delayVCHist.vnet_2::max_bucket           39                       # delay histogram for vnet_2
system.caches.delayVCHist.vnet_2::samples      1349320                       # delay histogram for vnet_2
system.caches.delayVCHist.vnet_2::mean       1.659212                       # delay histogram for vnet_2
system.caches.delayVCHist.vnet_2::stdev      2.811281                       # delay histogram for vnet_2
system.caches.delayVCHist.vnet_2         |      983616     72.90%     72.90% |      360843     26.74%     99.64% |        1125      0.08%     99.72% |         157      0.01%     99.73% |        2042      0.15%     99.89% |         314      0.02%     99.91% |        1035      0.08%     99.99% |         119      0.01%     99.99% |          69      0.01%    100.00% |           0      0.00%    100.00% # delay histogram for vnet_2 (Unspecified)
system.caches.delayVCHist.vnet_2::total       1349320                       # delay histogram for vnet_2
system.caches.L1Cache_Controller.Load         1827212      0.00%      0.00% (Unspecified)
system.caches.L1Cache_Controller.Ifetch        642656      0.00%      0.00% (Unspecified)
system.caches.L1Cache_Controller.Store         213686      0.00%      0.00% (Unspecified)
system.caches.L1Cache_Controller.Data         1349351      0.00%      0.00% (Unspecified)
system.caches.L1Cache_Controller.Replacement      1349320      0.00%      0.00% (Unspecified)
system.caches.L1Cache_Controller.Writeback_Ack      1349320      0.00%      0.00% (Unspecified)
system.caches.L1Cache_Controller.I.Load        730489      0.00%      0.00% (Unspecified)
system.caches.L1Cache_Controller.I.Ifetch       514107      0.00%      0.00% (Unspecified)
system.caches.L1Cache_Controller.I.Store       104756      0.00%      0.00% (Unspecified)
system.caches.L1Cache_Controller.M.Load       1096723      0.00%      0.00% (Unspecified)
system.caches.L1Cache_Controller.M.Ifetch       128549      0.00%      0.00% (Unspecified)
system.caches.L1Cache_Controller.M.Store       108930      0.00%      0.00% (Unspecified)
system.caches.L1Cache_Controller.M.Replacement      1349320      0.00%      0.00% (Unspecified)
system.caches.L1Cache_Controller.MI.Writeback_Ack      1349320      0.00%      0.00% (Unspecified)
system.caches.L1Cache_Controller.IS.Data      1244595      0.00%      0.00% (Unspecified)
system.caches.L1Cache_Controller.IM.Data       104756      0.00%      0.00% (Unspecified)
system.caches.Directory_Controller.GETX       1349352      0.00%      0.00% (Unspecified)
system.caches.Directory_Controller.PUTX       1349320      0.00%      0.00% (Unspecified)
system.caches.Directory_Controller.Memory_Data      1349352      0.00%      0.00% (Unspecified)
system.caches.Directory_Controller.Memory_Ack      1349320      0.00%      0.00% (Unspecified)
system.caches.Directory_Controller.I.GETX      1349352      0.00%      0.00% (Unspecified)
system.caches.Directory_Controller.M.PUTX      1349320      0.00%      0.00% (Unspecified)
system.caches.Directory_Controller.IM.Memory_Data      1349352      0.00%      0.00% (Unspecified)
system.caches.Directory_Controller.MI.Memory_Ack      1349320      0.00%      0.00% (Unspecified)
system.caches.MachineType.Directory.miss_mach_latency_hist_seqr::bucket_size           64                       (Unspecified)
system.caches.MachineType.Directory.miss_mach_latency_hist_seqr::max_bucket          639                       (Unspecified)
system.caches.MachineType.Directory.miss_mach_latency_hist_seqr::samples       131091                       (Unspecified)
system.caches.MachineType.Directory.miss_mach_latency_hist_seqr::mean    69.253458                       (Unspecified)
system.caches.MachineType.Directory.miss_mach_latency_hist_seqr::gmean    63.427247                       (Unspecified)
system.caches.MachineType.Directory.miss_mach_latency_hist_seqr::stdev    43.418704                       (Unspecified)
system.caches.MachineType.Directory.miss_mach_latency_hist_seqr |      114380     87.25%     87.25% |        7126      5.44%     92.69% |        2644      2.02%     94.71% |        5388      4.11%     98.82% |        1108      0.85%     99.66% |         331      0.25%     99.91% |           2      0.00%     99.91% |          41      0.03%     99.95% |          71      0.05%    100.00% |           0      0.00%    100.00% (Unspecified)
system.caches.MachineType.Directory.miss_mach_latency_hist_seqr::total       131091                       (Unspecified)
system.caches.MachineType.Directory.incomplete_times_seqr      1349350                       (Unspecified)
system.caches.RequestType.LD.latency_hist_seqr::bucket_size           64                       (Unspecified)
system.caches.RequestType.LD.latency_hist_seqr::max_bucket          639                       (Unspecified)
system.caches.RequestType.LD.latency_hist_seqr::samples      1048581                       (Unspecified)
system.caches.RequestType.LD.latency_hist_seqr::mean     9.532172                       (Unspecified)
system.caches.RequestType.LD.latency_hist_seqr::gmean     1.679959                       (Unspecified)
system.caches.RequestType.LD.latency_hist_seqr::stdev    27.298582                       (Unspecified)
system.caches.RequestType.LD.latency_hist_seqr |     1031874     98.41%     98.41% |        7123      0.68%     99.09% |        2643      0.25%     99.34% |        5388      0.51%     99.85% |        1108      0.11%     99.96% |         331      0.03%     99.99% |           2      0.00%     99.99% |          41      0.00%     99.99% |          71      0.01%    100.00% |           0      0.00%    100.00% (Unspecified)
system.caches.RequestType.LD.latency_hist_seqr::total      1048581                       (Unspecified)
system.caches.RequestType.LD.hit_latency_hist_seqr::bucket_size            1                       (Unspecified)
system.caches.RequestType.LD.hit_latency_hist_seqr::max_bucket            9                       (Unspecified)
system.caches.RequestType.LD.hit_latency_hist_seqr::samples       917500                       (Unspecified)
system.caches.RequestType.LD.hit_latency_hist_seqr::mean            1                       (Unspecified)
system.caches.RequestType.LD.hit_latency_hist_seqr::gmean            1                       (Unspecified)
system.caches.RequestType.LD.hit_latency_hist_seqr |           0      0.00%      0.00% |      917500    100.00%    100.00% |           0      0.00%    100.00% |           0      0.00%    100.00% |           0      0.00%    100.00% |           0      0.00%    100.00% |           0      0.00%    100.00% |           0      0.00%    100.00% |           0      0.00%    100.00% |           0      0.00%    100.00% (Unspecified)
system.caches.RequestType.LD.hit_latency_hist_seqr::total       917500                       (Unspecified)
system.caches.RequestType.LD.miss_latency_hist_seqr::bucket_size           64                       (Unspecified)
system.caches.RequestType.LD.miss_latency_hist_seqr::max_bucket          639                       (Unspecified)
system.caches.RequestType.LD.miss_latency_hist_seqr::samples       131081                       (Unspecified)
system.caches.RequestType.LD.miss_latency_hist_seqr::mean    69.253011                       (Unspecified)
system.caches.RequestType.LD.miss_latency_hist_seqr::gmean    63.426993                       (Unspecified)
system.caches.RequestType.LD.miss_latency_hist_seqr::stdev    43.418905                       (Unspecified)
system.caches.RequestType.LD.miss_latency_hist_seqr |      114374     87.25%     87.25% |        7123      5.43%     92.69% |        2643      2.02%     94.70% |        5388      4.11%     98.82% |        1108      0.85%     99.66% |         331      0.25%     99.91% |           2      0.00%     99.91% |          41      0.03%     99.95% |          71      0.05%    100.00% |           0      0.00%    100.00% (Unspecified)
system.caches.RequestType.LD.miss_latency_hist_seqr::total       131081                       (Unspecified)
system.caches.RequestType.ST.latency_hist_seqr::bucket_size            8                       (Unspecified)
system.caches.RequestType.ST.latency_hist_seqr::max_bucket           79                       (Unspecified)
system.caches.RequestType.ST.latency_hist_seqr::samples            1                       (Unspecified)
system.caches.RequestType.ST.latency_hist_seqr::mean           71                       (Unspecified)
system.caches.RequestType.ST.latency_hist_seqr::gmean           71                       (Unspecified)
system.caches.RequestType.ST.latency_hist_seqr::stdev          nan                       (Unspecified)
system.caches.RequestType.ST.latency_hist_seqr |           0      0.00%      0.00% |           0      0.00%      0.00% |           0      0.00%      0.00% |           0      0.00%      0.00% |           0      0.00%      0.00% |           0      0.00%      0.00% |           0      0.00%      0.00% |           0      0.00%      0.00% |           1    100.00%    100.00% |           0      0.00%    100.00% (Unspecified)
system.caches.RequestType.ST.latency_hist_seqr::total            1                       (Unspecified)
system.caches.RequestType.ST.miss_latency_hist_seqr::bucket_size            8                       (Unspecified)
system.caches.RequestType.ST.miss_latency_hist_seqr::max_bucket           79                       (Unspecified)
system.caches.RequestType.ST.miss_latency_hist_seqr::samples            1                       (Unspecified)
system.caches.RequestType.ST.miss_latency_hist_seqr::mean           71                       (Unspecified)
system.caches.RequestType.ST.miss_latency_hist_seqr::gmean           71                       (Unspecified)
system.caches.RequestType.ST.miss_latency_hist_seqr::stdev          nan                       (Unspecified)
system.caches.RequestType.ST.miss_latency_hist_seqr |           0      0.00%      0.00% |           0      0.00%      0.00% |           0      0.00%      0.00% |           0      0.00%      0.00% |           0      0.00%      0.00% |           0      0.00%      0.00% |           0      0.00%      0.00% |           0      0.00%      0.00% |           1    100.00%    100.00% |           0      0.00%    100.00% (Unspecified)
system.caches.RequestType.ST.miss_latency_hist_seqr::total            1                       (Unspecified)
system.caches.RequestType.IFETCH.latency_hist_seqr::bucket_size           32                       (Unspecified)
system.caches.RequestType.IFETCH.latency_hist_seqr::max_bucket          319                       (Unspecified)
system.caches.RequestType.IFETCH.latency_hist_seqr::samples           12                       (Unspecified)
system.caches.RequestType.IFETCH.latency_hist_seqr::mean    56.916667                       (Unspecified)
system.caches.RequestType.IFETCH.latency_hist_seqr::gmean    23.257158                       (Unspecified)
system.caches.RequestType.IFETCH.latency_hist_seqr::stdev    51.092533                       (Unspecified)
system.caches.RequestType.IFETCH.latency_hist_seqr |           4     33.33%     33.33% |           5     41.67%     75.00% |           1      8.33%     83.33% |           1      8.33%     91.67% |           0      0.00%     91.67% |           1      8.33%    100.00% |           0      0.00%    100.00% |           0      0.00%    100.00% |           0      0.00%    100.00% |           0      0.00%    100.00% (Unspecified)
system.caches.RequestType.IFETCH.latency_hist_seqr::total           12                       (Unspecified)
system.caches.RequestType.IFETCH.hit_latency_hist_seqr::bucket_size            1                       (Unspecified)
system.caches.RequestType.IFETCH.hit_latency_hist_seqr::max_bucket            9                       (Unspecified)
system.caches.RequestType.IFETCH.hit_latency_hist_seqr::samples            3                       (Unspecified)
system.caches.RequestType.IFETCH.hit_latency_hist_seqr::mean            1                       (Unspecified)
system.caches.RequestType.IFETCH.hit_latency_hist_seqr::gmean            1                       (Unspecified)
system.caches.RequestType.IFETCH.hit_latency_hist_seqr |           0      0.00%      0.00% |           3    100.00%    100.00% |           0      0.00%    100.00% |           0      0.00%    100.00% |           0      0.00%    100.00% |           0      0.00%    100.00% |           0      0.00%    100.00% |           0      0.00%    100.00% |           0      0.00%    100.00% |           0      0.00%    100.00% (Unspecified)
system.caches.RequestType.IFETCH.hit_latency_hist_seqr::total            3                       (Unspecified)
system.caches.RequestType.IFETCH.miss_latency_hist_seqr::bucket_size           32                       (Unspecified)
system.caches.RequestType.IFETCH.miss_latency_hist_seqr::max_bucket          319                       (Unspecified)
system.caches.RequestType.IFETCH.miss_latency_hist_seqr::samples            9                       (Unspecified)
system.caches.RequestType.IFETCH.miss_latency_hist_seqr::mean    75.555556                       (Unspecified)
system.caches.RequestType.IFETCH.miss_latency_hist_seqr::gmean    66.385852                       (Unspecified)
system.caches.RequestType.IFETCH.miss_latency_hist_seqr::stdev    45.011418                       (Unspecified)
system.caches.RequestType.IFETCH.miss_latency_hist_seqr |           1     11.11%     11.11% |           5     55.56%     66.67% |           1     11.11%     77.78% |           1     11.11%     88.89% |           0      0.00%     88.89% |           1     11.11%    100.00% |           0      0.00%    100.00% |           0      0.00%    100.00% |           0      0.00%    100.00% |           0      0.00%    100.00% (Unspecified)
system.caches.RequestType.IFETCH.miss_latency_hist_seqr::total            9                       (Unspecified)
system.caches.RequestTypeMachineType.LD.Directory.miss_type_mach_latency_hist_seqr::bucket_size           64                       (Unspecified)
system.caches.RequestTypeMachineType.LD.Directory.miss_type_mach_latency_hist_seqr::max_bucket          639                       (Unspecified)
system.caches.RequestTypeMachineType.LD.Directory.miss_type_mach_latency_hist_seqr::samples       131081                       (Unspecified)
system.caches.RequestTypeMachineType.LD.Directory.miss_type_mach_latency_hist_seqr::mean    69.253011                       (Unspecified)
system.caches.RequestTypeMachineType.LD.Directory.miss_type_mach_latency_hist_seqr::gmean    63.426993                       (Unspecified)
system.caches.RequestTypeMachineType.LD.Directory.miss_type_mach_latency_hist_seqr::stdev    43.418905                       (Unspecified)
system.caches.RequestTypeMachineType.LD.Directory.miss_type_mach_latency_hist_seqr |      114374     87.25%     87.25% |        7123      5.43%     92.69% |        2643      2.02%     94.70% |        5388      4.11%     98.82% |        1108      0.85%     99.66% |         331      0.25%     99.91% |           2      0.00%     99.91% |          41      0.03%     99.95% |          71      0.05%    100.00% |           0      0.00%    100.00% (Unspecified)
system.caches.RequestTypeMachineType.LD.Directory.miss_type_mach_latency_hist_seqr::total       131081                       (Unspecified)
system.caches.RequestTypeMachineType.ST.Directory.miss_type_mach_latency_hist_seqr::bucket_size            8                       (Unspecified)
system.caches.RequestTypeMachineType.ST.Directory.miss_type_mach_latency_hist_seqr::max_bucket           79                       (Unspecified)
system.caches.RequestTypeMachineType.ST.Directory.miss_type_mach_latency_hist_seqr::samples            1                       (Unspecified)
system.caches.RequestTypeMachineType.ST.Directory.miss_type_mach_latency_hist_seqr::mean           71                       (Unspecified)
system.caches.RequestTypeMachineType.ST.Directory.miss_type_mach_latency_hist_seqr::gmean           71                       (Unspecified)
system.caches.RequestTypeMachineType.ST.Directory.miss_type_mach_latency_hist_seqr::stdev          nan                       (Unspecified)
system.caches.RequestTypeMachineType.ST.Directory.miss_type_mach_latency_hist_seqr |           0      0.00%      0.00% |           0      0.00%      0.00% |           0      0.00%      0.00% |           0      0.00%      0.00% |           0      0.00%      0.00% |           0      0.00%      0.00% |           0      0.00%      0.00% |           0      0.00%      0.00% |           1    100.00%    100.00% |           0      0.00%    100.00% (Unspecified)
system.caches.RequestTypeMachineType.ST.Directory.miss_type_mach_latency_hist_seqr::total            1                       (Unspecified)
system.caches.RequestTypeMachineType.IFETCH.Directory.miss_type_mach_latency_hist_seqr::bucket_size           32                       (Unspecified)
system.caches.RequestTypeMachineType.IFETCH.Directory.miss_type_mach_latency_hist_seqr::max_bucket          319                       (Unspecified)
system.caches.RequestTypeMachineType.IFETCH.Directory.miss_type_mach_latency_hist_seqr::samples            9                       (Unspecified)
system.caches.RequestTypeMachineType.IFETCH.Directory.miss_type_mach_latency_hist_seqr::mean    75.555556                       (Unspecified)
system.caches.RequestTypeMachineType.IFETCH.Directory.miss_type_mach_latency_hist_seqr::gmean    66.385852                       (Unspecified)
system.caches.RequestTypeMachineType.IFETCH.Directory.miss_type_mach_latency_hist_seqr::stdev    45.011418                       (Unspecified)
system.caches.RequestTypeMachineType.IFETCH.Directory.miss_type_mach_latency_hist_seqr |           1     11.11%     11.11% |           5     55.56%     66.67% |           1     11.11%     77.78% |           1     11.11%     88.89% |           0      0.00%     88.89% |           1     11.11%    100.00% |           0      0.00%    100.00% |           0      0.00%    100.00% |           0      0.00%    100.00% |           0      0.00%    100.00% (Unspecified)
system.caches.RequestTypeMachineType.IFETCH.Directory.miss_type_mach_latency_hist_seqr::total            9                       (Unspecified)
system.caches.controllers0.delayHistogram::samples      2698671                       # delay_histogram (Unspecified)
system.caches.controllers0.delayHistogram::mean     0.859271                       # delay_histogram (Unspecified)
system.caches.controllers0.delayHistogram::stdev     2.180428                       # delay_histogram (Unspecified)
system.caches.controllers0.delayHistogram::0-3      2323391     86.09%     86.09% # delay_histogram (Unspecified)
system.caches.controllers0.delayHistogram::4-7       366504     13.58%     99.67% # delay_histogram (Unspecified)
system.caches.controllers0.delayHistogram::8-11         5022      0.19%     99.86% # delay_histogram (Unspecified)
system.caches.controllers0.delayHistogram::12-15          175      0.01%     99.87% # delay_histogram (Unspecified)
system.caches.controllers0.delayHistogram::16-19         2042      0.08%     99.94% # delay_histogram (Unspecified)
system.caches.controllers0.delayHistogram::20-23          314      0.01%     99.95% # delay_histogram (Unspecified)
system.caches.controllers0.delayHistogram::24-27         1035      0.04%     99.99% # delay_histogram (Unspecified)
system.caches.controllers0.delayHistogram::28-31          119      0.00%    100.00% # delay_histogram (Unspecified)
system.caches.controllers0.delayHistogram::32-35           69      0.00%    100.00% # delay_histogram (Unspecified)
system.caches.controllers0.delayHistogram::total      2698671                       # delay_histogram (Unspecified)
system.caches.controllers0.cacheMemory.m_demand_hits      1334202                       # Number of cache demand hits (Unspecified)
system.caches.controllers0.cacheMemory.m_demand_misses      1349352                       # Number of cache demand misses (Unspecified)
system.caches.controllers0.cacheMemory.m_demand_accesses      2683554                       # Number of cache demand accesses (Unspecified)
system.caches.controllers0.forwardToCache.m_buf_msgs     0.032190                       # Average number of messages in buffer (Unspecified)
system.caches.controllers0.forwardToCache.m_stall_time  5575.665985                       # Average number of cycles messages are stalled in this MB (Unspecified)
system.caches.controllers0.mandatoryQueue.m_buf_msgs     0.839932                       # Average number of messages in buffer (Unspecified)
system.caches.controllers0.mandatoryQueue.m_stall_time 14938.442074                       # Average number of cycles messages are stalled in this MB (Unspecified)
system.caches.controllers0.power_state.pwrStateResidencyTicks::UNDEFINED  41917884000                       # Cumulative time (in ticks) in various power states (Tick)
system.caches.controllers0.requestFromCache.m_buf_msgs     0.128760                       # Average number of messages in buffer (Unspecified)
system.caches.controllers0.requestFromCache.m_stall_time  1999.999857                       # Average number of cycles messages are stalled in this MB (Unspecified)
system.caches.controllers0.responseToCache.m_buf_msgs     0.032190                       # Average number of messages in buffer (Unspecified)
system.caches.controllers0.responseToCache.m_stall_time  5028.583886                       # Average number of cycles messages are stalled in this MB (Unspecified)
system.caches.controllers1.forwardFromDir.m_buf_msgs     0.032190                       # Average number of messages in buffer (Unspecified)
system.caches.controllers1.forwardFromDir.m_stall_time   999.979007                       # Average number of cycles messages are stalled in this MB (Unspecified)
system.caches.controllers1.power_state.pwrStateResidencyTicks::UNDEFINED  41917884000                       # Cumulative time (in ticks) in various power states (Tick)
system.caches.controllers1.requestToDir.m_buf_msgs     0.064380                       # Average number of messages in buffer (Unspecified)
system.caches.controllers1.requestToDir.m_stall_time 10867.285596                       # Average number of cycles messages are stalled in this MB (Unspecified)
system.caches.controllers1.requestToMemory.m_buf_msgs     0.064381                       # Average number of messages in buffer (Unspecified)
system.caches.controllers1.requestToMemory.m_stall_time  1000.002600                       # Average number of cycles messages are stalled in this MB (Unspecified)
system.caches.controllers1.responseFromDir.m_buf_msgs     0.032190                       # Average number of messages in buffer (Unspecified)
system.caches.controllers1.responseFromDir.m_stall_time   999.998354                       # Average number of cycles messages are stalled in this MB (Unspecified)
system.caches.controllers1.responseFromMemory.m_buf_msgs     0.067970                       # Average number of messages in buffer (Unspecified)
system.caches.controllers1.responseFromMemory.m_stall_time   999.998378                       # Average number of cycles messages are stalled in this MB (Unspecified)
system.caches.network.msg_count.Control       2698704                       (Unspecified)
system.caches.network.msg_byte.Control       21589632                       (Unspecified)
system.caches.network.msg_count.Data          2698640                       (Unspecified)
system.caches.network.msg_byte.Data         194302080                       (Unspecified)
system.caches.network.msg_count.Response_Data      2698703                       (Unspecified)
system.caches.network.msg_byte.Response_Data    194306616                       (Unspecified)
system.caches.network.msg_count.Writeback_Control      2698640                       (Unspecified)
system.caches.network.msg_byte.Writeback_Control     21589120                       (Unspecified)
system.caches.network.int_link_buffers2.m_buf_msgs     0.021682                       # Average number of messages in buffer (Unspecified)
system.caches.network.int_link_buffers2.m_stall_time  7826.559542                       # Average number of cycles messages are stalled in this MB (Unspecified)
system.caches.network.int_link_buffers8.m_buf_msgs     0.010841                       # Average number of messages in buffer (Unspecified)
system.caches.network.int_link_buffers8.m_stall_time  3000.000662                       # Average number of cycles messages are stalled in this MB (Unspecified)
system.caches.network.int_link_buffers9.m_buf_msgs     0.010841                       # Average number of messages in buffer (Unspecified)
system.caches.network.int_link_buffers9.m_stall_time         3000                       # Average number of cycles messages are stalled in this MB (Unspecified)
system.caches.network.power_state.pwrStateResidencyTicks::UNDEFINED  41917884000                       # Cumulative time (in ticks) in various power states (Tick)
system.caches.network.routers0.percent_links_utilized     5.420387                       (Unspecified)
system.caches.network.routers0.msg_count.Control::2      1349352                       (Unspecified)
system.caches.network.routers0.msg_bytes.Control::2     10794816                       (Unspecified)
system.caches.network.routers0.msg_count.Data::2      1349320                       (Unspecified)
system.caches.network.routers0.msg_bytes.Data::2     97151040                       (Unspecified)
system.caches.network.routers0.msg_count.Response_Data::4      1349351                       (Unspecified)
system.caches.network.routers0.msg_bytes.Response_Data::4     97153272                       (Unspecified)
system.caches.network.routers0.msg_count.Writeback_Control::3      1349320                       (Unspecified)
system.caches.network.routers0.msg_bytes.Writeback_Control::3     10794560                       (Unspecified)
system.caches.network.routers0.port_buffers3.m_buf_msgs     0.032190                       # Average number of messages in buffer (Unspecified)
system.caches.network.routers0.port_buffers3.m_stall_time  4575.687194                       # Average number of cycles messages are stalled in this MB (Unspecified)
system.caches.network.routers0.port_buffers4.m_buf_msgs     0.032190                       # Average number of messages in buffer (Unspecified)
system.caches.network.routers0.port_buffers4.m_stall_time  4028.585723                       # Average number of cycles messages are stalled in this MB (Unspecified)
system.caches.network.routers0.port_buffers7.m_buf_msgs     0.284719                       # Average number of messages in buffer (Unspecified)
system.caches.network.routers0.port_buffers7.m_stall_time  7867.286598                       # Average number of cycles messages are stalled in this MB (Unspecified)
system.caches.network.routers0.power_state.pwrStateResidencyTicks::UNDEFINED  41917884000                       # Cumulative time (in ticks) in various power states (Tick)
system.caches.network.routers0.throttle00.link_utilization     5.420385                       (Unspecified)
system.caches.network.routers0.throttle00.msg_count.Response_Data::4      1349351                       (Unspecified)
system.caches.network.routers0.throttle00.msg_bytes.Response_Data::4     97153272                       (Unspecified)
system.caches.network.routers0.throttle00.msg_count.Writeback_Control::3      1349320                       (Unspecified)
system.caches.network.routers0.throttle00.msg_bytes.Writeback_Control::3     10794560                       (Unspecified)
system.caches.network.routers0.throttle01.link_utilization     5.420390                       (Unspecified)
system.caches.network.routers0.throttle01.msg_count.Control::2      1349352                       (Unspecified)
system.caches.network.routers0.throttle01.msg_bytes.Control::2     10794816                       (Unspecified)
system.caches.network.routers0.throttle01.msg_count.Data::2      1349320                       (Unspecified)
system.caches.network.routers0.throttle01.msg_bytes.Data::2     97151040                       (Unspecified)
system.caches.network.routers1.percent_links_utilized     5.420400                       (Unspecified)
system.caches.network.routers1.msg_count.Control::2      1349352                       (Unspecified)
system.caches.network.routers1.msg_bytes.Control::2     10794816                       (Unspecified)
system.caches.network.routers1.msg_count.Data::2      1349320                       (Unspecified)
system.caches.network.routers1.msg_bytes.Data::2     97151040                       (Unspecified)
system.caches.network.routers1.msg_count.Response_Data::4      1349352                       (Unspecified)
system.caches.network.routers1.msg_bytes.Response_Data::4     97153344                       (Unspecified)
system.caches.network.routers1.msg_count.Writeback_Control::3      1349320                       (Unspecified)
system.caches.network.routers1.msg_bytes.Writeback_Control::3     10794560                       (Unspecified)
system.caches.network.routers1.port_buffers2.m_buf_msgs     0.064380                       # Average number of messages in buffer (Unspecified)
system.caches.network.routers1.port_buffers2.m_stall_time  9867.285977                       # Average number of cycles messages are stalled in this MB (Unspecified)
system.caches.network.routers1.port_buffers6.m_buf_msgs     0.058894                       # Average number of messages in buffer (Unspecified)
system.caches.network.routers1.port_buffers6.m_stall_time  2575.729467                       # Average number of cycles messages are stalled in this MB (Unspecified)
system.caches.network.routers1.port_buffers7.m_buf_msgs     0.033146                       # Average number of messages in buffer (Unspecified)
system.caches.network.routers1.port_buffers7.m_stall_time  2028.589253                       # Average number of cycles messages are stalled in this MB (Unspecified)
system.caches.network.routers1.power_state.pwrStateResidencyTicks::UNDEFINED  41917884000                       # Cumulative time (in ticks) in various power states (Tick)
system.caches.network.routers1.throttle00.link_utilization     5.420406                       (Unspecified)
system.caches.network.routers1.throttle00.msg_count.Control::2      1349352                       (Unspecified)
system.caches.network.routers1.throttle00.msg_bytes.Control::2     10794816                       (Unspecified)
system.caches.network.routers1.throttle00.msg_count.Data::2      1349320                       (Unspecified)
system.caches.network.routers1.throttle00.msg_bytes.Data::2     97151040                       (Unspecified)
system.caches.network.routers1.throttle01.link_utilization     5.420394                       (Unspecified)
system.caches.network.routers1.throttle01.msg_count.Response_Data::4      1349352                       (Unspecified)
system.caches.network.routers1.throttle01.msg_bytes.Response_Data::4     97153344                       (Unspecified)
system.caches.network.routers1.throttle01.msg_count.Writeback_Control::3      1349320                       (Unspecified)
system.caches.network.routers1.throttle01.msg_bytes.Writeback_Control::3     10794560                       (Unspecified)
system.caches.power_state.pwrStateResidencyTicks::UNDEFINED  41917884000                       # Cumulative time (in ticks) in various power states (Tick)
system.caches.sequencers.power_state.pwrStateResidencyTicks::UNDEFINED  41917884000                       # Cumulative time (in ticks) in various power states (Tick)
system.caches.sys_port_proxy.power_state.pwrStateResidencyTicks::UNDEFINED  41917884000                       # Cumulative time (in ticks) in various power states (Tick)
system.clk_domain.clock                          1000                       # Clock period in ticks (Tick)
system.clk_domain.voltage_domain.voltage            1                       # Voltage in Volts (Volt)
system.cpu.numCycles                         12092415                       # Number of cpu cycles simulated (Cycle)
system.cpu.numWorkItemsStarted                      0                       # Number of work items this cpu started (Count)
system.cpu.numWorkItemsCompleted                    0                       # Number of work items this cpu completed (Count)
system.cpu.instsAdded                         8388853                       # Number of instructions added to the IQ (excludes non-spec) (Count)
system.cpu.nonSpecInstsAdded                        2                       # Number of non-speculative instructions added to the IQ (Count)
system.cpu.instsIssued                        8388814                       # Number of instructions issued (Count)
system.cpu.squashedInstsIssued                      1                       # Number of squashed instructions issued (Count)
system.cpu.squashedInstsExamined                  225                       # Number of squashed instructions iterated over during squash; mainly for profiling (Count)
system.cpu.squashedOperandsExamined               213                       # Number of squashed operands that are examined and possibly removed from graph (Count)
system.cpu.squashedNonSpecRemoved                   1                       # Number of squashed non-spec instructions that were removed (Count)
system.cpu.numIssuedDist::samples            12092049                       # Number of insts issued each cycle (Count)
system.cpu.numIssuedDist::mean               0.693746                       # Number of insts issued each cycle (Count)
system.cpu.numIssuedDist::stdev              1.284756                       # Number of insts issued each cycle (Count)
system.cpu.numIssuedDist::underflows                0      0.00%      0.00% # Number of insts issued each cycle (Count)
system.cpu.numIssuedDist::0                   8465696     70.01%     70.01% # Number of insts issued each cycle (Count)
system.cpu.numIssuedDist::1                   1354410     11.20%     81.21% # Number of insts issued each cycle (Count)
system.cpu.numIssuedDist::2                    961185      7.95%     89.16% # Number of insts issued each cycle (Count)
system.cpu.numIssuedDist::3                    393218      3.25%     92.41% # Number of insts issued each cycle (Count)
system.cpu.numIssuedDist::4                    655359      5.42%     97.83% # Number of insts issued each cycle (Count)
system.cpu.numIssuedDist::5                    262147      2.17%    100.00% # Number of insts issued each cycle (Count)
system.cpu.numIssuedDist::6                        29      0.00%    100.00% # Number of insts issued each cycle (Count)
system.cpu.numIssuedDist::7                         5      0.00%    100.00% # Number of insts issued each cycle (Count)
system.cpu.numIssuedDist::8                         0      0.00%    100.00% # Number of insts issued each cycle (Count)
system.cpu.numIssuedDist::overflows                 0      0.00%    100.00% # Number of insts issued each cycle (Count)
system.cpu.numIssuedDist::min_value                 0                       # Number of insts issued each cycle (Count)
system.cpu.numIssuedDist::max_value                 7                       # Number of insts issued each cycle (Count)
system.cpu.numIssuedDist::total              12092049                       # Number of insts issued each cycle (Count)
system.cpu.statFuBusy::No_OpClass                   0      0.00%      0.00% # attempts to use FU when none available (Count)
system.cpu.statFuBusy::IntAlu                      24    100.00%    100.00% # attempts to use FU when none available (Count)
system.cpu.statFuBusy::IntMult                      0      0.00%    100.00% # attempts to use FU when none available (Count)
system.cpu.statFuBusy::IntDiv                       0      0.00%    100.00% # attempts to use FU when none available (Count)
system.cpu.statFuBusy::FloatAdd                     0      0.00%    100.00% # attempts to use FU when none available (Count)
system.cpu.statFuBusy::FloatCmp                     0      0.00%    100.00% # attempts to use FU when none available (Count)
system.cpu.statFuBusy::FloatCvt                     0      0.00%    100.00% # attempts to use FU when none available (Count)
system.cpu.statFuBusy::FloatMult                    0      0.00%    100.00% # attempts to use FU when none available (Count)
system.cpu.statFuBusy::FloatMultAcc                 0      0.00%    100.00% # attempts to use FU when none available (Count)
system.cpu.statFuBusy::FloatDiv                     0      0.00%    100.00% # attempts to use FU when none available (Count)
system.cpu.statFuBusy::FloatMisc                    0      0.00%    100.00% # attempts to use FU when none available (Count)
system.cpu.statFuBusy::FloatSqrt                    0      0.00%    100.00% # attempts to use FU when none available (Count)
system.cpu.statFuBusy::SimdAdd                      0      0.00%    100.00% # attempts to use FU when none available (Count)
system.cpu.statFuBusy::SimdAddAcc                   0      0.00%    100.00% # attempts to use FU when none available (Count)
system.cpu.statFuBusy::SimdAlu                      0      0.00%    100.00% # attempts to use FU when none available (Count)
system.cpu.statFuBusy::SimdCmp                      0      0.00%    100.00% # attempts to use FU when none available (Count)
system.cpu.statFuBusy::SimdCvt                      0      0.00%    100.00% # attempts to use FU when none available (Count)
system.cpu.statFuBusy::SimdMisc                     0      0.00%    100.00% # attempts to use FU when none available (Count)
system.cpu.statFuBusy::SimdMult                     0      0.00%    100.00% # attempts to use FU when none available (Count)
system.cpu.statFuBusy::SimdMultAcc                  0      0.00%    100.00% # attempts to use FU when none available (Count)
system.cpu.statFuBusy::SimdShift                    0      0.00%    100.00% # attempts to use FU when none available (Count)
system.cpu.statFuBusy::SimdShiftAcc                 0      0.00%    100.00% # attempts to use FU when none available (Count)
system.cpu.statFuBusy::SimdDiv                      0      0.00%    100.00% # attempts to use FU when none available (Count)
system.cpu.statFuBusy::SimdSqrt                     0      0.00%    100.00% # attempts to use FU when none available (Count)
system.cpu.statFuBusy::SimdFloatAdd                 0      0.00%    100.00% # attempts to use FU when none available (Count)
system.cpu.statFuBusy::SimdFloatAlu                 0      0.00%    100.00% # attempts to use FU when none available (Count)
system.cpu.statFuBusy::SimdFloatCmp                 0      0.00%    100.00% # attempts to use FU when none available (Count)
system.cpu.statFuBusy::SimdFloatCvt                 0      0.00%    100.00% # attempts to use FU when none available (Count)
system.cpu.statFuBusy::SimdFloatDiv                 0      0.00%    100.00% # attempts to use FU when none available (Count)
system.cpu.statFuBusy::SimdFloatMisc                0      0.00%    100.00% # attempts to use FU when none available (Count)
system.cpu.statFuBusy::SimdFloatMult                0      0.00%    100.00% # attempts to use FU when none available (Count)
system.cpu.statFuBusy::SimdFloatMultAcc             0      0.00%    100.00% # attempts to use FU when none available (Count)
system.cpu.statFuBusy::SimdFloatSqrt                0      0.00%    100.00% # attempts to use FU when none available (Count)
system.cpu.statFuBusy::SimdReduceAdd                0      0.00%    100.00% # attempts to use FU when none available (Count)
system.cpu.statFuBusy::SimdReduceAlu                0      0.00%    100.00% # attempts to use FU when none available (Count)
system.cpu.statFuBusy::SimdReduceCmp                0      0.00%    100.00% # attempts to use FU when none available (Count)
system.cpu.statFuBusy::SimdFloatReduceAdd            0      0.00%    100.00% # attempts to use FU when none available (Count)
system.cpu.statFuBusy::SimdFloatReduceCmp            0      0.00%    100.00% # attempts to use FU when none available (Count)
system.cpu.statFuBusy::SimdAes                      0      0.00%    100.00% # attempts to use FU when none available (Count)
system.cpu.statFuBusy::SimdAesMix                   0      0.00%    100.00% # attempts to use FU when none available (Count)
system.cpu.statFuBusy::SimdSha1Hash                 0      0.00%    100.00% # attempts to use FU when none available (Count)
system.cpu.statFuBusy::SimdSha1Hash2                0      0.00%    100.00% # attempts to use FU when none available (Count)
system.cpu.statFuBusy::SimdSha256Hash               0      0.00%    100.00% # attempts to use FU when none available (Count)
system.cpu.statFuBusy::SimdSha256Hash2              0      0.00%    100.00% # attempts to use FU when none available (Count)
system.cpu.statFuBusy::SimdShaSigma2                0      0.00%    100.00% # attempts to use FU when none available (Count)
system.cpu.statFuBusy::SimdShaSigma3                0      0.00%    100.00% # attempts to use FU when none available (Count)
system.cpu.statFuBusy::SimdPredAlu                  0      0.00%    100.00% # attempts to use FU when none available (Count)
system.cpu.statFuBusy::MemRead                      0      0.00%    100.00% # attempts to use FU when none available (Count)
system.cpu.statFuBusy::MemWrite                     0      0.00%    100.00% # attempts to use FU when none available (Count)
system.cpu.statFuBusy::FloatMemRead                 0      0.00%    100.00% # attempts to use FU when none available (Count)
system.cpu.statFuBusy::FloatMemWrite                0      0.00%    100.00% # attempts to use FU when none available (Count)
system.cpu.statFuBusy::IprAccess                    0      0.00%    100.00% # attempts to use FU when none available (Count)
system.cpu.statFuBusy::InstPrefetch                 0      0.00%    100.00% # attempts to use FU when none available (Count)
system.cpu.statIssuedInstType_0::No_OpClass           10      0.00%      0.00% # Number of instructions issued per FU type, per thread (Count)
system.cpu.statIssuedInstType_0::IntAlu       7340181     87.50%     87.50% # Number of instructions issued per FU type, per thread (Count)
system.cpu.statIssuedInstType_0::IntMult            0      0.00%     87.50% # Number of instructions issued per FU type, per thread (Count)
system.cpu.statIssuedInstType_0::IntDiv             0      0.00%     87.50% # Number of instructions issued per FU type, per thread (Count)
system.cpu.statIssuedInstType_0::FloatAdd            0      0.00%     87.50% # Number of instructions issued per FU type, per thread (Count)
system.cpu.statIssuedInstType_0::FloatCmp            0      0.00%     87.50% # Number of instructions issued per FU type, per thread (Count)
system.cpu.statIssuedInstType_0::FloatCvt            0      0.00%     87.50% # Number of instructions issued per FU type, per thread (Count)
system.cpu.statIssuedInstType_0::FloatMult            0      0.00%     87.50% # Number of instructions issued per FU type, per thread (Count)
system.cpu.statIssuedInstType_0::FloatMultAcc            0      0.00%     87.50% # Number of instructions issued per FU type, per thread (Count)
system.cpu.statIssuedInstType_0::FloatDiv            0      0.00%     87.50% # Number of instructions issued per FU type, per thread (Count)
system.cpu.statIssuedInstType_0::FloatMisc            0      0.00%     87.50% # Number of instructions issued per FU type, per thread (Count)
system.cpu.statIssuedInstType_0::FloatSqrt            0      0.00%     87.50% # Number of instructions issued per FU type, per thread (Count)
system.cpu.statIssuedInstType_0::SimdAdd            0      0.00%     87.50% # Number of instructions issued per FU type, per thread (Count)
system.cpu.statIssuedInstType_0::SimdAddAcc            0      0.00%     87.50% # Number of instructions issued per FU type, per thread (Count)
system.cpu.statIssuedInstType_0::SimdAlu            0      0.00%     87.50% # Number of instructions issued per FU type, per thread (Count)
system.cpu.statIssuedInstType_0::SimdCmp            0      0.00%     87.50% # Number of instructions issued per FU type, per thread (Count)
system.cpu.statIssuedInstType_0::SimdCvt            0      0.00%     87.50% # Number of instructions issued per FU type, per thread (Count)
system.cpu.statIssuedInstType_0::SimdMisc            0      0.00%     87.50% # Number of instructions issued per FU type, per thread (Count)
system.cpu.statIssuedInstType_0::SimdMult            0      0.00%     87.50% # Number of instructions issued per FU type, per thread (Count)
system.cpu.statIssuedInstType_0::SimdMultAcc            0      0.00%     87.50% # Number of instructions issued per FU type, per thread (Count)
system.cpu.statIssuedInstType_0::SimdShift            0      0.00%     87.50% # Number of instructions issued per FU type, per thread (Count)
system.cpu.statIssuedInstType_0::SimdShiftAcc            0      0.00%     87.50% # Number of instructions issued per FU type, per thread (Count)
system.cpu.statIssuedInstType_0::SimdDiv            0      0.00%     87.50% # Number of instructions issued per FU type, per thread (Count)
system.cpu.statIssuedInstType_0::SimdSqrt            0      0.00%     87.50% # Number of instructions issued per FU type, per thread (Count)
system.cpu.statIssuedInstType_0::SimdFloatAdd            0      0.00%     87.50% # Number of instructions issued per FU type, per thread (Count)
system.cpu.statIssuedInstType_0::SimdFloatAlu            0      0.00%     87.50% # Number of instructions issued per FU type, per thread (Count)
system.cpu.statIssuedInstType_0::SimdFloatCmp            0      0.00%     87.50% # Number of instructions issued per FU type, per thread (Count)
system.cpu.statIssuedInstType_0::SimdFloatCvt            0      0.00%     87.50% # Number of instructions issued per FU type, per thread (Count)
system.cpu.statIssuedInstType_0::SimdFloatDiv            0      0.00%     87.50% # Number of instructions issued per FU type, per thread (Count)
system.cpu.statIssuedInstType_0::SimdFloatMisc            0      0.00%     87.50% # Number of instructions issued per FU type, per thread (Count)
system.cpu.statIssuedInstType_0::SimdFloatMult            0      0.00%     87.50% # Number of instructions issued per FU type, per thread (Count)
system.cpu.statIssuedInstType_0::SimdFloatMultAcc            0      0.00%     87.50% # Number of instructions issued per FU type, per thread (Count)
system.cpu.statIssuedInstType_0::SimdFloatSqrt            0      0.00%     87.50% # Number of instructions issued per FU type, per thread (Count)
system.cpu.statIssuedInstType_0::SimdReduceAdd            0      0.00%     87.50% # Number of instructions issued per FU type, per thread (Count)
system.cpu.statIssuedInstType_0::SimdReduceAlu            0      0.00%     87.50% # Number of instructions issued per FU type, per thread (Count)
system.cpu.statIssuedInstType_0::SimdReduceCmp            0      0.00%     87.50% # Number of instructions issued per FU type, per thread (Count)
system.cpu.statIssuedInstType_0::SimdFloatReduceAdd            0      0.00%     87.50% # Number of instructions issued per FU type, per thread (Count)
system.cpu.statIssuedInstType_0::SimdFloatReduceCmp            0      0.00%     87.50% # Number of instructions issued per FU type, per thread (Count)
system.cpu.statIssuedInstType_0::SimdAes            0      0.00%     87.50% # Number of instructions issued per FU type, per thread (Count)
system.cpu.statIssuedInstType_0::SimdAesMix            0      0.00%     87.50% # Number of instructions issued per FU type, per thread (Count)
system.cpu.statIssuedInstType_0::SimdSha1Hash            0      0.00%     87.50% # Number of instructions issued per FU type, per thread (Count)
system.cpu.statIssuedInstType_0::SimdSha1Hash2            0      0.00%     87.50% # Number of instructions issued per FU type, per thread (Count)
system.cpu.statIssuedInstType_0::SimdSha256Hash            0      0.00%     87.50% # Number of instructions issued per FU type, per thread (Count)
system.cpu.statIssuedInstType_0::SimdSha256Hash2            0      0.00%     87.50% # Number of instructions issued per FU type, per thread (Count)
system.cpu.statIssuedInstType_0::SimdShaSigma2            0      0.00%     87.50% # Number of instructions issued per FU type, per thread (Count)
system.cpu.statIssuedInstType_0::SimdShaSigma3            0      0.00%     87.50% # Number of instructions issued per FU type, per thread (Count)
system.cpu.statIssuedInstType_0::SimdPredAlu            0      0.00%     87.50% # Number of instructions issued per FU type, per thread (Count)
system.cpu.statIssuedInstType_0::MemRead      1048609     12.50%    100.00% # Number of instructions issued per FU type, per thread (Count)
system.cpu.statIssuedInstType_0::MemWrite           14      0.00%    100.00% # Number of instructions issued per FU type, per thread (Count)
system.cpu.statIssuedInstType_0::FloatMemRead            0      0.00%    100.00% # Number of instructions issued per FU type, per thread (Count)
system.cpu.statIssuedInstType_0::FloatMemWrite            0      0.00%    100.00% # Number of instructions issued per FU type, per thread (Count)
system.cpu.statIssuedInstType_0::IprAccess            0      0.00%    100.00% # Number of instructions issued per FU type, per thread (Count)
system.cpu.statIssuedInstType_0::InstPrefetch            0      0.00%    100.00% # Number of instructions issued per FU type, per thread (Count)
system.cpu.statIssuedInstType_0::total        8388814                       # Number of instructions issued per FU type, per thread (Count)
system.cpu.issueRate                         0.693725                       # Inst issue rate ((Count/Cycle))
system.cpu.fuBusy                                  24                       # FU busy when requested (Count)
system.cpu.fuBusyRate                        0.000003                       # FU busy rate (busy events/executed inst) ((Count/Count))
system.cpu.intInstQueueReads                 28869703                       # Number of integer instruction queue reads (Count)
system.cpu.intInstQueueWrites                 8389080                       # Number of integer instruction queue writes (Count)
system.cpu.intInstQueueWakeupAccesses         8388781                       # Number of integer instruction queue wakeup accesses (Count)
system.cpu.fpInstQueueReads                         0                       # Number of floating instruction queue reads (Count)
system.cpu.fpInstQueueWrites                        0                       # Number of floating instruction queue writes (Count)
system.cpu.fpInstQueueWakeupAccesses                0                       # Number of floating instruction queue wakeup accesses (Count)
system.cpu.vecInstQueueReads                        0                       # Number of vector instruction queue reads (Count)
system.cpu.vecInstQueueWrites                       0                       # Number of vector instruction queue writes (Count)
system.cpu.vecInstQueueWakeupAccesses               0                       # Number of vector instruction queue wakeup accesses (Count)
system.cpu.intAluAccesses                     8388828                       # Number of integer alu accesses (Count)
system.cpu.fpAluAccesses                            0                       # Number of floating point alu accesses (Count)
system.cpu.vecAluAccesses                           0                       # Number of vector alu accesses (Count)
system.cpu.idleCycles                               0                       # Number of cycles IEW is idle (Cycle)
system.cpu.squashCycles                             4                       # Number of cycles IEW is squashing (Cycle)
system.cpu.blockCycles                             26                       # Number of cycles IEW is blocking (Cycle)
system.cpu.unblockCycles                            1                       # Number of cycles IEW is unblocking (Cycle)
system.cpu.dispatchedInsts                    8388855                       # Number of instructions dispatched to IQ (Count)
system.cpu.dispSquashedInsts                        0                       # Number of squashed instructions skipped by dispatch (Count)
system.cpu.dispLoadInsts                      1048613                       # Number of dispatched load instructions (Count)
system.cpu.dispStoreInsts                          24                       # Number of dispatched store instructions (Count)
system.cpu.dispNonSpecInsts                         2                       # Number of dispatched non-speculative instructions (Count)
system.cpu.iqFullEvents                             1                       # Number of times the IQ has become full, causing a stall (Count)
system.cpu.lsqFullEvents                            0                       # Number of times the LSQ has become full, causing a stall (Count)
system.cpu.memOrderViolationEvents                  0                       # Number of memory order violations (Count)
system.cpu.predictedTakenIncorrect                  2                       # Number of branches that were predicted taken incorrectly (Count)
system.cpu.predictedNotTakenIncorrect               1                       # Number of branches that were predicted not taken incorrectly (Count)
system.cpu.branchMispredicts                        3                       # Number of branch mispredicts detected at execute (Count)
system.cpu.numInsts                           8388812                       # Number of executed instructions (Count)
system.cpu.numLoadInsts                       1048609                       # Number of load instructions executed (Count)
system.cpu.numSquashedInsts                         3                       # Number of squashed instructions skipped in execute (Count)
system.cpu.numSwp                                   0                       # Number of swp insts executed (Count)
system.cpu.numNop                                   0                       # Number of nop insts executed (Count)
system.cpu.numRefs                            1048623                       # Number of memory reference insts executed (Count)
system.cpu.numBranches                        1048596                       # Number of branches executed (Count)
system.cpu.numStoreInsts                           14                       # Number of stores executed (Count)
system.cpu.numRate                           0.693725                       # Inst execution rate ((Count/Cycle))
system.cpu.instsToCommit                      8388807                       # Cumulative count of insts sent to commit (Count)
system.cpu.writebackCount                     8388781                       # Cumulative count of insts written-back (Count)
system.cpu.producerInst                       7165365                       # Number of instructions producing a value (Count)
system.cpu.consumerInst                       8519808                       # Number of instructions consuming a value (Count)
system.cpu.wbRate                            0.693723                       # Insts written-back per cycle ((Count/Cycle))
system.cpu.wbFanout                          0.841024                       # Average fanout of values written-back ((Count/Count))
system.cpu.timesIdled                              13                       # Number of times that the entire CPU went into an idle state and unscheduled itself (Count)
system.cpu.idleCycles                             366                       # Total number of cycles that the CPU has spent unscheduled due to idling (Cycle)
system.cpu.committedInsts                     4194313                       # Number of Instructions Simulated (Count)
system.cpu.committedOps                       8388625                       # Number of Ops (including micro ops) Simulated (Count)
system.cpu.cpi                               2.883050                       # CPI: Cycles Per Instruction ((Cycle/Count))
system.cpu.totalCpi                          2.883050                       # CPI: Total CPI of All Threads ((Cycle/Count))
system.cpu.ipc                               0.346855                       # IPC: Instructions Per Cycle ((Count/Cycle))
system.cpu.totalIpc                          0.346855                       # IPC: Total IPC of All Threads ((Count/Cycle))
system.cpu.intRegfileReads                    8388810                       # Number of integer regfile reads (Count)
system.cpu.intRegfileWrites                   7340160                       # Number of integer regfile writes (Count)
system.cpu.ccRegfileReads                     5242901                       # number of cc regfile reads (Count)
system.cpu.ccRegfileWrites                    4194330                       # number of cc regfile writes (Count)
system.cpu.miscRegfileReads                   3145844                       # number of misc regfile reads (Count)
system.cpu.MemDepUnit__0.insertedLoads        1048613                       # Number of loads inserted to the mem dependence unit. (Count)
system.cpu.MemDepUnit__0.insertedStores            24                       # Number of stores inserted to the mem dependence unit. (Count)
system.cpu.MemDepUnit__0.conflictingLoads            0                       # Number of conflicting loads. (Count)
system.cpu.MemDepUnit__0.conflictingStores            0                       # Number of conflicting stores. (Count)
system.cpu.MemDepUnit__1.insertedLoads              0                       # Number of loads inserted to the mem dependence unit. (Count)
system.cpu.MemDepUnit__1.insertedStores             0                       # Number of stores inserted to the mem dependence unit. (Count)
system.cpu.MemDepUnit__1.conflictingLoads            0                       # Number of conflicting loads. (Count)
system.cpu.MemDepUnit__1.conflictingStores            0                       # Number of conflicting stores. (Count)
system.cpu.MemDepUnit__2.insertedLoads              0                       # Number of loads inserted to the mem dependence unit. (Count)
system.cpu.MemDepUnit__2.insertedStores             0                       # Number of stores inserted to the mem dependence unit. (Count)
system.cpu.MemDepUnit__2.conflictingLoads            0                       # Number of conflicting loads. (Count)
system.cpu.MemDepUnit__2.conflictingStores            0                       # Number of conflicting stores. (Count)
system.cpu.MemDepUnit__3.insertedLoads              0                       # Number of loads inserted to the mem dependence unit. (Count)
system.cpu.MemDepUnit__3.insertedStores             0                       # Number of stores inserted to the mem dependence unit. (Count)
system.cpu.MemDepUnit__3.conflictingLoads            0                       # Number of conflicting loads. (Count)
system.cpu.MemDepUnit__3.conflictingStores            0                       # Number of conflicting stores. (Count)
system.cpu.branchPred.lookups                 1048637                       # Number of BP lookups (Count)
system.cpu.branchPred.condPredicted           1048592                       # Number of conditional branches predicted (Count)
system.cpu.branchPred.condIncorrect                 5                       # Number of conditional branches incorrect (Count)
system.cpu.branchPred.BTBLookups              1048609                       # Number of BTB lookups (Count)
system.cpu.branchPred.BTBHits                 1048605                       # Number of BTB hits (Count)
system.cpu.branchPred.BTBHitRatio            0.999996                       # BTB Hit Ratio (Ratio)
system.cpu.branchPred.RASUsed                       2                       # Number of times the RAS was used to get a target. (Count)
system.cpu.branchPred.RASIncorrect                  0                       # Number of incorrect RAS predictions. (Count)
system.cpu.branchPred.indirectLookups              25                       # Number of indirect predictor lookups. (Count)
system.cpu.branchPred.indirectHits                  0                       # Number of indirect target hits. (Count)
system.cpu.branchPred.indirectMisses               25                       # Number of indirect misses. (Count)
system.cpu.branchPred.indirectMispredicted            0                       # Number of mispredicted indirect branches. (Count)
system.cpu.commit.commitSquashedInsts             225                       # The number of squashed insts skipped by commit (Count)
system.cpu.commit.commitNonSpecStalls               1                       # The number of times commit has been forced to stall to communicate backwards (Count)
system.cpu.commit.branchMispredicts                 3                       # The number of times a branch was mispredicted (Count)
system.cpu.commit.numCommittedDist::samples     12092019                       # Number of insts commited each cycle (Count)
system.cpu.commit.numCommittedDist::mean     0.693732                       # Number of insts commited each cycle (Count)
system.cpu.commit.numCommittedDist::stdev     2.251352                       # Number of insts commited each cycle (Count)
system.cpu.commit.numCommittedDist::underflows            0      0.00%      0.00% # Number of insts commited each cycle (Count)
system.cpu.commit.numCommittedDist::0        11043437     91.33%     91.33% # Number of insts commited each cycle (Count)
system.cpu.commit.numCommittedDist::1               1      0.00%     91.33% # Number of insts commited each cycle (Count)
system.cpu.commit.numCommittedDist::2               0      0.00%     91.33% # Number of insts commited each cycle (Count)
system.cpu.commit.numCommittedDist::3               4      0.00%     91.33% # Number of insts commited each cycle (Count)
system.cpu.commit.numCommittedDist::4               0      0.00%     91.33% # Number of insts commited each cycle (Count)
system.cpu.commit.numCommittedDist::5               1      0.00%     91.33% # Number of insts commited each cycle (Count)
system.cpu.commit.numCommittedDist::6               0      0.00%     91.33% # Number of insts commited each cycle (Count)
system.cpu.commit.numCommittedDist::7               1      0.00%     91.33% # Number of insts commited each cycle (Count)
system.cpu.commit.numCommittedDist::8         1048575      8.67%    100.00% # Number of insts commited each cycle (Count)
system.cpu.commit.numCommittedDist::overflows            0      0.00%    100.00% # Number of insts commited each cycle (Count)
system.cpu.commit.numCommittedDist::min_value            0                       # Number of insts commited each cycle (Count)
system.cpu.commit.numCommittedDist::max_value            8                       # Number of insts commited each cycle (Count)
system.cpu.commit.numCommittedDist::total     12092019                       # Number of insts commited each cycle (Count)
system.cpu.commit.instsCommitted              4194313                       # Number of instructions committed (Count)
system.cpu.commit.opsCommitted                8388625                       # Number of ops (including micro ops) committed (Count)
system.cpu.commit.memRefs                     1048578                       # Number of memory references committed (Count)
system.cpu.commit.loads                       1048577                       # Number of loads committed (Count)
system.cpu.commit.amos                              0                       # Number of atomic instructions committed (Count)
system.cpu.commit.membars                           0                       # Number of memory barriers committed (Count)
system.cpu.commit.branches                    1048579                       # Number of branches committed (Count)
system.cpu.commit.vectorInstructions                0                       # Number of committed Vector instructions. (Count)
system.cpu.commit.floating                          0                       # Number of committed floating point instructions. (Count)
system.cpu.commit.integer                     8388623                       # Number of committed integer instructions. (Count)
system.cpu.commit.functionCalls                     1                       # Number of function calls committed. (Count)
system.cpu.commit.committedInstType_0::No_OpClass            1      0.00%      0.00% # Class of committed instruction (Count)
system.cpu.commit.committedInstType_0::IntAlu      7340046     87.50%     87.50% # Class of committed instruction (Count)
system.cpu.commit.committedInstType_0::IntMult            0      0.00%     87.50% # Class of committed instruction (Count)
system.cpu.commit.committedInstType_0::IntDiv            0      0.00%     87.50% # Class of committed instruction (Count)
system.cpu.commit.committedInstType_0::FloatAdd            0      0.00%     87.50% # Class of committed instruction (Count)
system.cpu.commit.committedInstType_0::FloatCmp            0      0.00%     87.50% # Class of committed instruction (Count)
system.cpu.commit.committedInstType_0::FloatCvt            0      0.00%     87.50% # Class of committed instruction (Count)
system.cpu.commit.committedInstType_0::FloatMult            0      0.00%     87.50% # Class of committed instruction (Count)
system.cpu.commit.committedInstType_0::FloatMultAcc            0      0.00%     87.50% # Class of committed instruction (Count)
system.cpu.commit.committedInstType_0::FloatDiv            0      0.00%     87.50% # Class of committed instruction (Count)
system.cpu.commit.committedInstType_0::FloatMisc            0      0.00%     87.50% # Class of committed instruction (Count)
system.cpu.commit.committedInstType_0::FloatSqrt            0      0.00%     87.50% # Class of committed instruction (Count)
system.cpu.commit.committedInstType_0::SimdAdd            0      0.00%     87.50% # Class of committed instruction (Count)
system.cpu.commit.committedInstType_0::SimdAddAcc            0      0.00%     87.50% # Class of committed instruction (Count)
system.cpu.commit.committedInstType_0::SimdAlu            0      0.00%     87.50% # Class of committed instruction (Count)
system.cpu.commit.committedInstType_0::SimdCmp            0      0.00%     87.50% # Class of committed instruction (Count)
system.cpu.commit.committedInstType_0::SimdCvt            0      0.00%     87.50% # Class of committed instruction (Count)
system.cpu.commit.committedInstType_0::SimdMisc            0      0.00%     87.50% # Class of committed instruction (Count)
system.cpu.commit.committedInstType_0::SimdMult            0      0.00%     87.50% # Class of committed instruction (Count)
system.cpu.commit.committedInstType_0::SimdMultAcc            0      0.00%     87.50% # Class of committed instruction (Count)
system.cpu.commit.committedInstType_0::SimdShift            0      0.00%     87.50% # Class of committed instruction (Count)
system.cpu.commit.committedInstType_0::SimdShiftAcc            0      0.00%     87.50% # Class of committed instruction (Count)
system.cpu.commit.committedInstType_0::SimdDiv            0      0.00%     87.50% # Class of committed instruction (Count)
system.cpu.commit.committedInstType_0::SimdSqrt            0      0.00%     87.50% # Class of committed instruction (Count)
system.cpu.commit.committedInstType_0::SimdFloatAdd            0      0.00%     87.50% # Class of committed instruction (Count)
system.cpu.commit.committedInstType_0::SimdFloatAlu            0      0.00%     87.50% # Class of committed instruction (Count)
system.cpu.commit.committedInstType_0::SimdFloatCmp            0      0.00%     87.50% # Class of committed instruction (Count)
system.cpu.commit.committedInstType_0::SimdFloatCvt            0      0.00%     87.50% # Class of committed instruction (Count)
system.cpu.commit.committedInstType_0::SimdFloatDiv            0      0.00%     87.50% # Class of committed instruction (Count)
system.cpu.commit.committedInstType_0::SimdFloatMisc            0      0.00%     87.50% # Class of committed instruction (Count)
system.cpu.commit.committedInstType_0::SimdFloatMult            0      0.00%     87.50% # Class of committed instruction (Count)
system.cpu.commit.committedInstType_0::SimdFloatMultAcc            0      0.00%     87.50% # Class of committed instruction (Count)
system.cpu.commit.committedInstType_0::SimdFloatSqrt            0      0.00%     87.50% # Class of committed instruction (Count)
system.cpu.commit.committedInstType_0::SimdReduceAdd            0      0.00%     87.50% # Class of committed instruction (Count)
system.cpu.commit.committedInstType_0::SimdReduceAlu            0      0.00%     87.50% # Class of committed instruction (Count)
system.cpu.commit.committedInstType_0::SimdReduceCmp            0      0.00%     87.50% # Class of committed instruction (Count)
system.cpu.commit.committedInstType_0::SimdFloatReduceAdd            0      0.00%     87.50% # Class of committed instruction (Count)
system.cpu.commit.committedInstType_0::SimdFloatReduceCmp            0      0.00%     87.50% # Class of committed instruction (Count)
system.cpu.commit.committedInstType_0::SimdAes            0      0.00%     87.50% # Class of committed instruction (Count)
system.cpu.commit.committedInstType_0::SimdAesMix            0      0.00%     87.50% # Class of committed instruction (Count)
system.cpu.commit.committedInstType_0::SimdSha1Hash            0      0.00%     87.50% # Class of committed instruction (Count)
system.cpu.commit.committedInstType_0::SimdSha1Hash2            0      0.00%     87.50% # Class of committed instruction (Count)
system.cpu.commit.committedInstType_0::SimdSha256Hash            0      0.00%     87.50% # Class of committed instruction (Count)
system.cpu.commit.committedInstType_0::SimdSha256Hash2            0      0.00%     87.50% # Class of committed instruction (Count)
system.cpu.commit.committedInstType_0::SimdShaSigma2            0      0.00%     87.50% # Class of committed instruction (Count)
system.cpu.commit.committedInstType_0::SimdShaSigma3            0      0.00%     87.50% # Class of committed instruction (Count)
system.cpu.commit.committedInstType_0::SimdPredAlu            0      0.00%     87.50% # Class of committed instruction (Count)
system.cpu.commit.committedInstType_0::MemRead      1048577     12.50%    100.00% # Class of committed instruction (Count)
system.cpu.commit.committedInstType_0::MemWrite            1      0.00%    100.00% # Class of committed instruction (Count)
system.cpu.commit.committedInstType_0::FloatMemRead            0      0.00%    100.00% # Class of committed instruction (Count)
system.cpu.commit.committedInstType_0::FloatMemWrite            0      0.00%    100.00% # Class of committed instruction (Count)
system.cpu.commit.committedInstType_0::IprAccess            0      0.00%    100.00% # Class of committed instruction (Count)
system.cpu.commit.committedInstType_0::InstPrefetch            0      0.00%    100.00% # Class of committed instruction (Count)
system.cpu.commit.committedInstType_0::total      8388625                       # Class of committed instruction (Count)
system.cpu.commit.commitEligibleSamples       1048575                       # number cycles where commit BW limit reached (Cycle)
system.cpu.decode.idleCycles                   349770                       # Number of cycles decode is idle (Cycle)
system.cpu.decode.blockedCycles              10693650                       # Number of cycles decode is blocked (Cycle)
system.cpu.decode.runCycles                        63                       # Number of cycles decode is running (Cycle)
system.cpu.decode.unblockCycles               1048562                       # Number of cycles decode is unblocking (Cycle)
system.cpu.decode.squashCycles                      4                       # Number of cycles decode is squashing (Cycle)
system.cpu.decode.branchResolved              1048598                       # Number of times decode resolved a branch (Count)
[...]
system.mem_ctrl.rdPerTurnAround::16             65020     98.76%     99.06% # Reads before turning the bus around for writes (Count)
system.mem_ctrl.rdPerTurnAround::17               594      0.90%     99.96% # Reads before turning the bus around for writes (Count)
system.mem_ctrl.rdPerTurnAround::18                19      0.03%     99.99% # Reads before turning the bus around for writes (Count)
system.mem_ctrl.rdPerTurnAround::19                 3      0.00%     99.99% # Reads before turning the bus around for writes (Count)
system.mem_ctrl.rdPerTurnAround::20                 4      0.01%    100.00% # Reads before turning the bus around for writes (Count)
system.mem_ctrl.rdPerTurnAround::21                 1      0.00%    100.00% # Reads before turning the bus around for writes (Count)
system.mem_ctrl.rdPerTurnAround::total          65836                       # Reads before turning the bus around for writes (Count)
system.mem_ctrl.wrPerTurnAround::samples        65836                       # Writes before turning the bus around for reads (Count)
system.mem_ctrl.wrPerTurnAround::mean       16.009964                       # Writes before turning the bus around for reads (Count)
system.mem_ctrl.wrPerTurnAround::gmean      16.009594                       # Writes before turning the bus around for reads (Count)
system.mem_ctrl.wrPerTurnAround::stdev       0.112651                       # Writes before turning the bus around for reads (Count)
system.mem_ctrl.wrPerTurnAround::16             65237     99.09%     99.09% # Writes before turning the bus around for reads (Count)
system.mem_ctrl.wrPerTurnAround::17               569      0.86%     99.95% # Writes before turning the bus around for reads (Count)
system.mem_ctrl.wrPerTurnAround::18                11      0.02%     99.97% # Writes before turning the bus around for reads (Count)
system.mem_ctrl.wrPerTurnAround::19                12      0.02%     99.99% # Writes before turning the bus around for reads (Count)
system.mem_ctrl.wrPerTurnAround::20                 6      0.01%    100.00% # Writes before turning the bus around for reads (Count)
system.mem_ctrl.wrPerTurnAround::21                 1      0.00%    100.00% # Writes before turning the bus around for reads (Count)
system.mem_ctrl.wrPerTurnAround::total          65836                       # Writes before turning the bus around for reads (Count)
system.mem_ctrl.bytesReadWrQ                   661632                       # Total number of bytes read from write queue (Byte)
system.mem_ctrl.bytesReadSys                 68098048                       # Total read bytes from the system interface side (Byte)
system.mem_ctrl.bytesWrittenSys              68098048                       # Total written bytes from the system interface side (Byte)
system.mem_ctrl.avgRdBWSys               942748013.13622034                       # Average system read bandwidth in Byte/s ((Byte/Second))
system.mem_ctrl.avgWrBWSys               942748013.13622034                       # Average system write bandwidth in Byte/s ((Byte/Second))
system.mem_ctrl.totGap                    72233578000                       # Total gap between requests (Tick)
system.mem_ctrl.avgGap                       33943.33                       # Average gap between requests ((Tick/Count))
system.mem_ctrl.requestorReadBytes::caches.controllers1     67436416                       # Per-requestor bytes read from memory (Byte)
system.mem_ctrl.requestorWriteBytes::caches.controllers1     67458048                       # Per-requestor bytes write to memory (Byte)
system.mem_ctrl.requestorReadRate::caches.controllers1 933588392.974606513977                       # Per-requestor bytes read from memory rate ((Byte/Second))
system.mem_ctrl.requestorWriteRate::caches.controllers1 933887865.949517130852                       # Per-requestor bytes write to memory rate ((Byte/Second))
system.mem_ctrl.requestorReadAccesses::caches.controllers1      1064032                       # Per-requestor read serviced memory accesses (Count)
system.mem_ctrl.requestorWriteAccesses::caches.controllers1      1064032                       # Per-requestor write serviced memory accesses (Count)
system.mem_ctrl.requestorReadTotalLat::caches.controllers1  29790188250                       # Per-requestor read total memory access latency (Tick)
system.mem_ctrl.requestorWriteTotalLat::caches.controllers1 1782634063750                       # Per-requestor write total memory access latency (Tick)
system.mem_ctrl.requestorReadAvgLat::caches.controllers1     27997.46                       # Per-requestor read average memory access latency ((Tick/Count))
system.mem_ctrl.requestorWriteAvgLat::caches.controllers1   1675357.57                       # Per-requestor write average memory access latency ((Tick/Count))
system.mem_ctrl.dram.bytesRead::caches.controllers1     68097984                       # Number of bytes read from this memory (Byte)
system.mem_ctrl.dram.bytesRead::total        68097984                       # Number of bytes read from this memory (Byte)
system.mem_ctrl.dram.bytesWritten::caches.controllers1     68098048                       # Number of bytes written to this memory (Byte)
system.mem_ctrl.dram.bytesWritten::total     68098048                       # Number of bytes written to this memory (Byte)
system.mem_ctrl.dram.numReads::caches.controllers1      1064031                       # Number of read requests responded to by this memory (Count)
system.mem_ctrl.dram.numReads::total          1064031                       # Number of read requests responded to by this memory (Count)
system.mem_ctrl.dram.numWrites::caches.controllers1      1064032                       # Number of write requests responded to by this memory (Count)
system.mem_ctrl.dram.numWrites::total         1064032                       # Number of write requests responded to by this memory (Count)
system.mem_ctrl.dram.bwRead::caches.controllers1    942747127                       # Total read bandwidth from this memory ((Byte/Second))
system.mem_ctrl.dram.bwRead::total          942747127                       # Total read bandwidth from this memory ((Byte/Second))
system.mem_ctrl.dram.bwWrite::caches.controllers1    942748013                       # Write bandwidth from this memory ((Byte/Second))
system.mem_ctrl.dram.bwWrite::total         942748013                       # Write bandwidth from this memory ((Byte/Second))
system.mem_ctrl.dram.bwTotal::caches.controllers1   1885495140                       # Total bandwidth to/from this memory ((Byte/Second))
system.mem_ctrl.dram.bwTotal::total        1885495140                       # Total bandwidth to/from this memory ((Byte/Second))
system.mem_ctrl.dram.readBursts               1053694                       # Number of DRAM read bursts (Count)
system.mem_ctrl.dram.writeBursts              1054032                       # Number of DRAM write bursts (Count)
system.mem_ctrl.dram.perBankRdBursts::0         66682                       # Per bank write bursts (Count)
system.mem_ctrl.dram.perBankRdBursts::1         66059                       # Per bank write bursts (Count)
system.mem_ctrl.dram.perBankRdBursts::2         65638                       # Per bank write bursts (Count)
system.mem_ctrl.dram.perBankRdBursts::3         65792                       # Per bank write bursts (Count)
system.mem_ctrl.dram.perBankRdBursts::4         65934                       # Per bank write bursts (Count)
system.mem_ctrl.dram.perBankRdBursts::5         65906                       # Per bank write bursts (Count)
system.mem_ctrl.dram.perBankRdBursts::6         65992                       # Per bank write bursts (Count)
system.mem_ctrl.dram.perBankRdBursts::7         65667                       # Per bank write bursts (Count)
system.mem_ctrl.dram.perBankRdBursts::8         65780                       # Per bank write bursts (Count)
system.mem_ctrl.dram.perBankRdBursts::9         65788                       # Per bank write bursts (Count)
system.mem_ctrl.dram.perBankRdBursts::10        65806                       # Per bank write bursts (Count)
system.mem_ctrl.dram.perBankRdBursts::11        65743                       # Per bank write bursts (Count)
system.mem_ctrl.dram.perBankRdBursts::12        65658                       # Per bank write bursts (Count)
system.mem_ctrl.dram.perBankRdBursts::13        65678                       # Per bank write bursts (Count)
system.mem_ctrl.dram.perBankRdBursts::14        65720                       # Per bank write bursts (Count)
system.mem_ctrl.dram.perBankRdBursts::15        65851                       # Per bank write bursts (Count)
system.mem_ctrl.dram.perBankWrBursts::0         66815                       # Per bank write bursts (Count)
system.mem_ctrl.dram.perBankWrBursts::1         66105                       # Per bank write bursts (Count)
system.mem_ctrl.dram.perBankWrBursts::2         65652                       # Per bank write bursts (Count)
system.mem_ctrl.dram.perBankWrBursts::3         65796                       # Per bank write bursts (Count)
system.mem_ctrl.dram.perBankWrBursts::4         65966                       # Per bank write bursts (Count)
system.mem_ctrl.dram.perBankWrBursts::5         65933                       # Per bank write bursts (Count)
system.mem_ctrl.dram.perBankWrBursts::6         66016                       # Per bank write bursts (Count)
system.mem_ctrl.dram.perBankWrBursts::7         65674                       # Per bank write bursts (Count)
system.mem_ctrl.dram.perBankWrBursts::8         65789                       # Per bank write bursts (Count)
system.mem_ctrl.dram.perBankWrBursts::9         65800                       # Per bank write bursts (Count)
system.mem_ctrl.dram.perBankWrBursts::10        65812                       # Per bank write bursts (Count)
system.mem_ctrl.dram.perBankWrBursts::11        65733                       # Per bank write bursts (Count)
system.mem_ctrl.dram.perBankWrBursts::12        65662                       # Per bank write bursts (Count)
system.mem_ctrl.dram.perBankWrBursts::13        65680                       # Per bank write bursts (Count)
system.mem_ctrl.dram.perBankWrBursts::14        65729                       # Per bank write bursts (Count)
system.mem_ctrl.dram.perBankWrBursts::15        65870                       # Per bank write bursts (Count)
system.mem_ctrl.dram.totQLat              10033425750                       # Total ticks spent queuing (Tick)
system.mem_ctrl.dram.totBusLat             5268470000                       # Total ticks spent in databus transfers (Tick)
system.mem_ctrl.dram.totMemAccLat         29790188250                       # Total ticks spent from burst creation until serviced by the DRAM (Tick)
system.mem_ctrl.dram.avgQLat                  9522.14                       # Average queueing delay per DRAM burst ((Tick/Count))
system.mem_ctrl.dram.avgBusLat                5000.00                       # Average bus latency per DRAM burst ((Tick/Count))
system.mem_ctrl.dram.avgMemAccLat            28272.14                       # Average memory access latency per DRAM burst ((Tick/Count))
system.mem_ctrl.dram.readRowHits               942464                       # Number of row buffer hits during reads (Count)
system.mem_ctrl.dram.writeRowHits             1013722                       # Number of row buffer hits during writes (Count)
system.mem_ctrl.dram.readRowHitRate             89.44                       # Row buffer hit rate for reads (Ratio)
system.mem_ctrl.dram.writeRowHitRate            96.18                       # Row buffer hit rate for writes (Ratio)
system.mem_ctrl.dram.bytesPerActivate::samples       151538                       # Bytes accessed per row activation (Byte)
system.mem_ctrl.dram.bytesPerActivate::mean   890.160778                       # Bytes accessed per row activation (Byte)
system.mem_ctrl.dram.bytesPerActivate::gmean   793.825963                       # Bytes accessed per row activation (Byte)
system.mem_ctrl.dram.bytesPerActivate::stdev   274.722805                       # Bytes accessed per row activation (Byte)
system.mem_ctrl.dram.bytesPerActivate::0-127         4281      2.83%      2.83% # Bytes accessed per row activation (Byte)
system.mem_ctrl.dram.bytesPerActivate::128-255         5386      3.55%      6.38% # Bytes accessed per row activation (Byte)
system.mem_ctrl.dram.bytesPerActivate::256-383         4649      3.07%      9.45% # Bytes accessed per row activation (Byte)
system.mem_ctrl.dram.bytesPerActivate::384-511         4711      3.11%     12.56% # Bytes accessed per row activation (Byte)
system.mem_ctrl.dram.bytesPerActivate::512-639         4854      3.20%     15.76% # Bytes accessed per row activation (Byte)
system.mem_ctrl.dram.bytesPerActivate::640-767         4191      2.77%     18.52% # Bytes accessed per row activation (Byte)
system.mem_ctrl.dram.bytesPerActivate::768-895         4270      2.82%     21.34% # Bytes accessed per row activation (Byte)
system.mem_ctrl.dram.bytesPerActivate::896-1023         5391      3.56%     24.90% # Bytes accessed per row activation (Byte)
system.mem_ctrl.dram.bytesPerActivate::1024-1151       113805     75.10%    100.00% # Bytes accessed per row activation (Byte)
system.mem_ctrl.dram.bytesPerActivate::total       151538                       # Bytes accessed per row activation (Byte)
system.mem_ctrl.dram.bytesRead               67436416                       # Total number of bytes read from DRAM (Byte)
system.mem_ctrl.dram.bytesWritten            67458048                       # Total number of bytes written to DRAM (Byte)
system.mem_ctrl.dram.avgRdBW               933.588393                       # Average DRAM read bandwidth in MiBytes/s ((Byte/Second))
system.mem_ctrl.dram.avgWrBW               933.887866                       # Average DRAM write bandwidth in MiBytes/s ((Byte/Second))
system.mem_ctrl.dram.peakBW                  12800.00                       # Theoretical peak bandwidth in MiByte/s ((Byte/Second))
system.mem_ctrl.dram.busUtil                    14.59                       # Data bus utilization in percentage (Ratio)
system.mem_ctrl.dram.busUtilRead                 7.29                       # Data bus utilization in percentage for reads (Ratio)
system.mem_ctrl.dram.busUtilWrite                7.30                       # Data bus utilization in percentage for writes (Ratio)
system.mem_ctrl.dram.pageHitRate                92.81                       # Row buffer hit rate, read and write combined (Ratio)
system.mem_ctrl.dram.power_state.pwrStateResidencyTicks::UNDEFINED 107954419000                       # Cumulative time (in ticks) in various power states (Tick)
system.mem_ctrl.dram.rank0.actEnergy        544132260                       # Energy for activate commands per rank (pJ) (Joule)
system.mem_ctrl.dram.rank0.preEnergy        289190385                       # Energy for precharge commands per rank (pJ) (Joule)
system.mem_ctrl.dram.rank0.readEnergy      3768113580                       # Energy for read commands per rank (pJ) (Joule)
system.mem_ctrl.dram.rank0.writeEnergy     2756327040                       # Energy for write commands per rank (pJ) (Joule)
system.mem_ctrl.dram.rank0.refreshEnergy 5702015280.000001                       # Energy for refresh commands per rank (pJ) (Joule)
system.mem_ctrl.dram.rank0.actBackEnergy  25020900120                       # Energy for active background per rank (pJ) (Joule)
system.mem_ctrl.dram.rank0.preBackEnergy   6669516960                       # Energy for precharge background per rank (pJ) (Joule)
system.mem_ctrl.dram.rank0.actPowerDownEnergy            0                       # Energy for active power-down per rank (pJ) (Joule)
system.mem_ctrl.dram.rank0.prePowerDownEnergy            0                       # Energy for precharge power-down per rank (pJ) (Joule)
system.mem_ctrl.dram.rank0.selfRefreshEnergy            0                       # Energy for self refresh per rank (pJ) (Joule)
system.mem_ctrl.dram.rank0.totalEnergy    44750195625                       # Total energy per rank (pJ) (Joule)
system.mem_ctrl.dram.rank0.averagePower    619.520812                       # Core power per rank (mW) (Watt)
system.mem_ctrl.dram.rank0.totalIdleTime            0                       # Total Idle time Per DRAM Rank (Tick)
system.mem_ctrl.dram.rank0.pwrStateTime::IDLE  16985086750                       # Time in different power states (Tick)
system.mem_ctrl.dram.rank0.pwrStateTime::REF   2412020000                       # Time in different power states (Tick)
system.mem_ctrl.dram.rank0.pwrStateTime::SREF            0                       # Time in different power states (Tick)
system.mem_ctrl.dram.rank0.pwrStateTime::PRE_PDN            0                       # Time in different power states (Tick)
system.mem_ctrl.dram.rank0.pwrStateTime::ACT  52841821750                       # Time in different power states (Tick)
system.mem_ctrl.dram.rank0.pwrStateTime::ACT_PDN            0                       # Time in different power states (Tick)
system.mem_ctrl.dram.rank1.actEnergy        538134660                       # Energy for activate commands per rank (pJ) (Joule)
system.mem_ctrl.dram.rank1.preEnergy        286006380                       # Energy for precharge commands per rank (pJ) (Joule)
system.mem_ctrl.dram.rank1.readEnergy      3755882760                       # Energy for read commands per rank (pJ) (Joule)
system.mem_ctrl.dram.rank1.writeEnergy     2746137600                       # Energy for write commands per rank (pJ) (Joule)
system.mem_ctrl.dram.rank1.refreshEnergy 5702015280.000001                       # Energy for refresh commands per rank (pJ) (Joule)
system.mem_ctrl.dram.rank1.actBackEnergy  25050990420                       # Energy for active background per rank (pJ) (Joule)
system.mem_ctrl.dram.rank1.preBackEnergy   6643685280                       # Energy for precharge background per rank (pJ) (Joule)
system.mem_ctrl.dram.rank1.actPowerDownEnergy            0                       # Energy for active power-down per rank (pJ) (Joule)
system.mem_ctrl.dram.rank1.prePowerDownEnergy            0                       # Energy for precharge power-down per rank (pJ) (Joule)
system.mem_ctrl.dram.rank1.selfRefreshEnergy            0                       # Energy for self refresh per rank (pJ) (Joule)
system.mem_ctrl.dram.rank1.totalEnergy    44722852380                       # Total energy per rank (pJ) (Joule)
system.mem_ctrl.dram.rank1.averagePower    619.142273                       # Core power per rank (mW) (Watt)
system.mem_ctrl.dram.rank1.totalIdleTime            0                       # Total Idle time Per DRAM Rank (Tick)
system.mem_ctrl.dram.rank1.pwrStateTime::IDLE  16916077500                       # Time in different power states (Tick)
system.mem_ctrl.dram.rank1.pwrStateTime::REF   2412020000                       # Time in different power states (Tick)
system.mem_ctrl.dram.rank1.pwrStateTime::SREF            0                       # Time in different power states (Tick)
system.mem_ctrl.dram.rank1.pwrStateTime::PRE_PDN            0                       # Time in different power states (Tick)
system.mem_ctrl.dram.rank1.pwrStateTime::ACT  52909548500                       # Time in different power states (Tick)
system.mem_ctrl.dram.rank1.pwrStateTime::ACT_PDN            0                       # Time in different power states (Tick)
system.mem_ctrl.power_state.pwrStateResidencyTicks::UNDEFINED 107954419000                       # Cumulative time (in ticks) in various power states (Tick)
system.workload.inst.arm                            0                       # number of arm instructions executed (Count)
system.workload.inst.quiesce                        0                       # number of quiesce instructions executed (Count)

---------- End Simulation Statistics   ----------
