
---------- Begin Simulation Statistics ----------
simSeconds                                   0.003147                       # Number of seconds simulated (Second)
simTicks                                   3146799000                       # Number of ticks simulated (Tick)
finalTick                                 12556652000                       # Number of ticks from beginning of simulation (restored from checkpoints and never reset) (Tick)
simFreq                                  1000000000000                       # The number of ticks per simulated second ((Tick/Second))
hostSeconds                                      9.77                       # Real time elapsed on the host (Second)
hostTickRate                                322062964                       # The number of ticks simulated per host second (ticks/s) ((Tick/Second))
hostMemory                                    9646236                       # Number of bytes of host memory used (Byte)
simInsts                                      6451886                       # Number of instructions simulated (Count)
simOps                                       12338249                       # Number of ops (including micro ops) simulated (Count)
hostInstRate                                   660320                       # Simulator instruction rate (inst/s) ((Count/Second))
hostOpRate                                    1262760                       # Simulator op (including micro ops) rate (op/s) ((Count/Second))
system.caches.delayHistogram::bucket_size            8                       # delay histogram for all message (Unspecified)
system.caches.delayHistogram::max_bucket           79                       # delay histogram for all message (Unspecified)
system.caches.delayHistogram::samples          540008                       # delay histogram for all message (Unspecified)
system.caches.delayHistogram::mean           0.399716                       # delay histogram for all message (Unspecified)
system.caches.delayHistogram::stdev          1.836364                       # delay histogram for all message (Unspecified)
system.caches.delayHistogram             |      534650     99.01%     99.01% |        3775      0.70%     99.71% |        1015      0.19%     99.89% |         379      0.07%     99.97% |         130      0.02%     99.99% |          43      0.01%    100.00% |          10      0.00%    100.00% |           4      0.00%    100.00% |           2      0.00%    100.00% |           0      0.00%    100.00% # delay histogram for all message (Unspecified)
system.caches.delayHistogram::total            540008                       # delay histogram for all message (Unspecified)
system.caches.m_outstandReqHistSeqr::bucket_size            1                       (Unspecified)
system.caches.m_outstandReqHistSeqr::max_bucket            9                       (Unspecified)
system.caches.m_outstandReqHistSeqr::samples      1048591                       (Unspecified)
system.caches.m_outstandReqHistSeqr::mean     1.000051                       (Unspecified)
system.caches.m_outstandReqHistSeqr::gmean     1.000029                       (Unspecified)
system.caches.m_outstandReqHistSeqr::stdev     0.009814                       (Unspecified)
system.caches.m_outstandReqHistSeqr      |           0      0.00%      0.00% |     1048561    100.00%    100.00% |           8      0.00%    100.00% |          21      0.00%    100.00% |           1      0.00%    100.00% |           0      0.00%    100.00% |           0      0.00%    100.00% |           0      0.00%    100.00% |           0      0.00%    100.00% |           0      0.00%    100.00% (Unspecified)
system.caches.m_outstandReqHistSeqr::total      1048591                       (Unspecified)
system.caches.m_latencyHistSeqr::bucket_size           32                       (Unspecified)
system.caches.m_latencyHistSeqr::max_bucket          319                       (Unspecified)
system.caches.m_latencyHistSeqr::samples      1048589                       (Unspecified)
system.caches.m_latencyHistSeqr::mean        1.001077                       (Unspecified)
system.caches.m_latencyHistSeqr::gmean       1.000067                       (Unspecified)
system.caches.m_latencyHistSeqr::stdev       0.296751                       (Unspecified)
system.caches.m_latencyHistSeqr          |     1048572    100.00%    100.00% |          14      0.00%    100.00% |           2      0.00%    100.00% |           0      0.00%    100.00% |           0      0.00%    100.00% |           0      0.00%    100.00% |           1      0.00%    100.00% |           0      0.00%    100.00% |           0      0.00%    100.00% |           0      0.00%    100.00% (Unspecified)
system.caches.m_latencyHistSeqr::total        1048589                       (Unspecified)
system.caches.m_hitLatencyHistSeqr::bucket_size            1                       (Unspecified)
system.caches.m_hitLatencyHistSeqr::max_bucket            9                       (Unspecified)
system.caches.m_hitLatencyHistSeqr::samples      1048572                       (Unspecified)
system.caches.m_hitLatencyHistSeqr::mean            1                       (Unspecified)
system.caches.m_hitLatencyHistSeqr::gmean            1                       (Unspecified)
system.caches.m_hitLatencyHistSeqr       |           0      0.00%      0.00% |     1048572    100.00%    100.00% |           0      0.00%    100.00% |           0      0.00%    100.00% |           0      0.00%    100.00% |           0      0.00%    100.00% |           0      0.00%    100.00% |           0      0.00%    100.00% |           0      0.00%    100.00% |           0      0.00%    100.00% (Unspecified)
system.caches.m_hitLatencyHistSeqr::total      1048572                       (Unspecified)
system.caches.m_missLatencyHistSeqr::bucket_size           32                       (Unspecified)
system.caches.m_missLatencyHistSeqr::max_bucket          319                       (Unspecified)
system.caches.m_missLatencyHistSeqr::samples           17                       (Unspecified)
system.caches.m_missLatencyHistSeqr::mean    67.411765                       (Unspecified)
system.caches.m_missLatencyHistSeqr::gmean    63.492029                       (Unspecified)
system.caches.m_missLatencyHistSeqr::stdev    32.941347                       (Unspecified)
system.caches.m_missLatencyHistSeqr      |           0      0.00%      0.00% |          14     82.35%     82.35% |           2     11.76%     94.12% |           0      0.00%     94.12% |           0      0.00%     94.12% |           0      0.00%     94.12% |           1      5.88%    100.00% |           0      0.00%    100.00% |           0      0.00%    100.00% |           0      0.00%    100.00% (Unspecified)
system.caches.m_missLatencyHistSeqr::total           17                       (Unspecified)
system.caches.delayVCHist.vnet_1::bucket_size            2                       # delay histogram for vnet_1 (Unspecified)
system.caches.delayVCHist.vnet_1::max_bucket           19                       # delay histogram for vnet_1 (Unspecified)
system.caches.delayVCHist.vnet_1::samples       270019                       # delay histogram for vnet_1 (Unspecified)
system.caches.delayVCHist.vnet_1::mean       0.085305                       # delay histogram for vnet_1 (Unspecified)
system.caches.delayVCHist.vnet_1::stdev      0.725120                       # delay histogram for vnet_1 (Unspecified)
system.caches.delayVCHist.vnet_1         |      265455     98.31%     98.31% |        1264      0.47%     98.78% |         957      0.35%     99.13% |        1208      0.45%     99.58% |        1046      0.39%     99.97% |          44      0.02%     99.98% |          19      0.01%     99.99% |          12      0.00%     99.99% |          13      0.00%    100.00% |           1      0.00%    100.00% # delay histogram for vnet_1 (Unspecified)
system.caches.delayVCHist.vnet_1::total        270019                       # delay histogram for vnet_1 (Unspecified)
system.caches.delayVCHist.vnet_2::bucket_size            8                       # delay histogram for vnet_2 (Unspecified)
system.caches.delayVCHist.vnet_2::max_bucket           79                       # delay histogram for vnet_2 (Unspecified)
system.caches.delayVCHist.vnet_2::samples       269989                       # delay histogram for vnet_2 (Unspecified)
system.caches.delayVCHist.vnet_2::mean       0.714162                       # delay histogram for vnet_2 (Unspecified)
system.caches.delayVCHist.vnet_2::stdev      2.453824                       # delay histogram for vnet_2 (Unspecified)
system.caches.delayVCHist.vnet_2         |      265766     98.44%     98.44% |        2654      0.98%     99.42% |        1001      0.37%     99.79% |         379      0.14%     99.93% |         130      0.05%     99.98% |          43      0.02%     99.99% |          10      0.00%    100.00% |           4      0.00%    100.00% |           2      0.00%    100.00% |           0      0.00%    100.00% # delay histogram for vnet_2 (Unspecified)
system.caches.delayVCHist.vnet_2::total        269989                       # delay histogram for vnet_2 (Unspecified)
system.caches.L1Cache_Controller.Load         1520479      0.00%      0.00% (Unspecified)
system.caches.L1Cache_Controller.Ifetch        265604      0.00%      0.00% (Unspecified)
system.caches.L1Cache_Controller.Store         208138      0.00%      0.00% (Unspecified)
system.caches.L1Cache_Controller.Data          270019      0.00%      0.00% (Unspecified)
system.caches.L1Cache_Controller.Replacement       269989      0.00%      0.00% (Unspecified)
system.caches.L1Cache_Controller.Writeback_Ack       269989      0.00%      0.00% (Unspecified)
system.caches.L1Cache_Controller.I.Load        128708      0.00%      0.00% (Unspecified)
system.caches.L1Cache_Controller.I.Ifetch       110076      0.00%      0.00% (Unspecified)
system.caches.L1Cache_Controller.I.Store        31237      0.00%      0.00% (Unspecified)
system.caches.L1Cache_Controller.M.Load       1391771      0.00%      0.00% (Unspecified)
system.caches.L1Cache_Controller.M.Ifetch       155528      0.00%      0.00% (Unspecified)
system.caches.L1Cache_Controller.M.Store       176901      0.00%      0.00% (Unspecified)
system.caches.L1Cache_Controller.M.Replacement       269989      0.00%      0.00% (Unspecified)
system.caches.L1Cache_Controller.MI.Writeback_Ack       269989      0.00%      0.00% (Unspecified)
system.caches.L1Cache_Controller.IS.Data       238782      0.00%      0.00% (Unspecified)
system.caches.L1Cache_Controller.IM.Data        31237      0.00%      0.00% (Unspecified)
system.caches.Directory_Controller.GETX        270021      0.00%      0.00% (Unspecified)
system.caches.Directory_Controller.PUTX        269989      0.00%      0.00% (Unspecified)
system.caches.Directory_Controller.Memory_Data       270019      0.00%      0.00% (Unspecified)
system.caches.Directory_Controller.Memory_Ack       269989      0.00%      0.00% (Unspecified)
system.caches.Directory_Controller.I.GETX       270021      0.00%      0.00% (Unspecified)
system.caches.Directory_Controller.M.PUTX       269989      0.00%      0.00% (Unspecified)
system.caches.Directory_Controller.IM.Memory_Data       270019      0.00%      0.00% (Unspecified)
system.caches.Directory_Controller.MI.Memory_Ack       269989      0.00%      0.00% (Unspecified)
system.caches.MachineType.Directory.miss_mach_latency_hist_seqr::bucket_size           32                       (Unspecified)
system.caches.MachineType.Directory.miss_mach_latency_hist_seqr::max_bucket          319                       (Unspecified)
system.caches.MachineType.Directory.miss_mach_latency_hist_seqr::samples           17                       (Unspecified)
system.caches.MachineType.Directory.miss_mach_latency_hist_seqr::mean    67.411765                       (Unspecified)
system.caches.MachineType.Directory.miss_mach_latency_hist_seqr::gmean    63.492029                       (Unspecified)
system.caches.MachineType.Directory.miss_mach_latency_hist_seqr::stdev    32.941347                       (Unspecified)
system.caches.MachineType.Directory.miss_mach_latency_hist_seqr |           0      0.00%      0.00% |          14     82.35%     82.35% |           2     11.76%     94.12% |           0      0.00%     94.12% |           0      0.00%     94.12% |           0      0.00%     94.12% |           1      5.88%    100.00% |           0      0.00%    100.00% |           0      0.00%    100.00% |           0      0.00%    100.00% (Unspecified)
system.caches.MachineType.Directory.miss_mach_latency_hist_seqr::total           17                       (Unspecified)
system.caches.MachineType.Directory.incomplete_times_seqr       270018                       (Unspecified)
system.caches.RequestType.LD.latency_hist_seqr::bucket_size           32                       (Unspecified)
system.caches.RequestType.LD.latency_hist_seqr::max_bucket          319                       (Unspecified)
system.caches.RequestType.LD.latency_hist_seqr::samples      1048576                       (Unspecified)
system.caches.RequestType.LD.latency_hist_seqr::mean     1.001010                       (Unspecified)
system.caches.RequestType.LD.latency_hist_seqr::gmean     1.000063                       (Unspecified)
system.caches.RequestType.LD.latency_hist_seqr::stdev     0.288772                       (Unspecified)
system.caches.RequestType.LD.latency_hist_seqr |     1048560    100.00%    100.00% |          14      0.00%    100.00% |           1      0.00%    100.00% |           0      0.00%    100.00% |           0      0.00%    100.00% |           0      0.00%    100.00% |           1      0.00%    100.00% |           0      0.00%    100.00% |           0      0.00%    100.00% |           0      0.00%    100.00% (Unspecified)
system.caches.RequestType.LD.latency_hist_seqr::total      1048576                       (Unspecified)
system.caches.RequestType.LD.hit_latency_hist_seqr::bucket_size            1                       (Unspecified)
system.caches.RequestType.LD.hit_latency_hist_seqr::max_bucket            9                       (Unspecified)
system.caches.RequestType.LD.hit_latency_hist_seqr::samples      1048560                       (Unspecified)
system.caches.RequestType.LD.hit_latency_hist_seqr::mean            1                       (Unspecified)
system.caches.RequestType.LD.hit_latency_hist_seqr::gmean            1                       (Unspecified)
system.caches.RequestType.LD.hit_latency_hist_seqr |           0      0.00%      0.00% |     1048560    100.00%    100.00% |           0      0.00%    100.00% |           0      0.00%    100.00% |           0      0.00%    100.00% |           0      0.00%    100.00% |           0      0.00%    100.00% |           0      0.00%    100.00% |           0      0.00%    100.00% |           0      0.00%    100.00% (Unspecified)
system.caches.RequestType.LD.hit_latency_hist_seqr::total      1048560                       (Unspecified)
system.caches.RequestType.LD.miss_latency_hist_seqr::bucket_size           32                       (Unspecified)
system.caches.RequestType.LD.miss_latency_hist_seqr::max_bucket          319                       (Unspecified)
system.caches.RequestType.LD.miss_latency_hist_seqr::samples           16                       (Unspecified)
system.caches.RequestType.LD.miss_latency_hist_seqr::mean    67.187500                       (Unspecified)
system.caches.RequestType.LD.miss_latency_hist_seqr::gmean    63.050061                       (Unspecified)
system.caches.RequestType.LD.miss_latency_hist_seqr::stdev    34.008271                       (Unspecified)
system.caches.RequestType.LD.miss_latency_hist_seqr |           0      0.00%      0.00% |          14     87.50%     87.50% |           1      6.25%     93.75% |           0      0.00%     93.75% |           0      0.00%     93.75% |           0      0.00%     93.75% |           1      6.25%    100.00% |           0      0.00%    100.00% |           0      0.00%    100.00% |           0      0.00%    100.00% (Unspecified)
system.caches.RequestType.LD.miss_latency_hist_seqr::total           16                       (Unspecified)
system.caches.RequestType.ST.latency_hist_seqr::bucket_size            1                       (Unspecified)
system.caches.RequestType.ST.latency_hist_seqr::max_bucket            9                       (Unspecified)
system.caches.RequestType.ST.latency_hist_seqr::samples            1                       (Unspecified)
system.caches.RequestType.ST.latency_hist_seqr::mean            1                       (Unspecified)
system.caches.RequestType.ST.latency_hist_seqr::gmean            1                       (Unspecified)
system.caches.RequestType.ST.latency_hist_seqr::stdev          nan                       (Unspecified)
system.caches.RequestType.ST.latency_hist_seqr |           0      0.00%      0.00% |           1    100.00%    100.00% |           0      0.00%    100.00% |           0      0.00%    100.00% |           0      0.00%    100.00% |           0      0.00%    100.00% |           0      0.00%    100.00% |           0      0.00%    100.00% |           0      0.00%    100.00% |           0      0.00%    100.00% (Unspecified)
system.caches.RequestType.ST.latency_hist_seqr::total            1                       (Unspecified)
system.caches.RequestType.ST.hit_latency_hist_seqr::bucket_size            1                       (Unspecified)
system.caches.RequestType.ST.hit_latency_hist_seqr::max_bucket            9                       (Unspecified)
system.caches.RequestType.ST.hit_latency_hist_seqr::samples            1                       (Unspecified)
system.caches.RequestType.ST.hit_latency_hist_seqr::mean            1                       (Unspecified)
system.caches.RequestType.ST.hit_latency_hist_seqr::gmean            1                       (Unspecified)
system.caches.RequestType.ST.hit_latency_hist_seqr::stdev          nan                       (Unspecified)
system.caches.RequestType.ST.hit_latency_hist_seqr |           0      0.00%      0.00% |           1    100.00%    100.00% |           0      0.00%    100.00% |           0      0.00%    100.00% |           0      0.00%    100.00% |           0      0.00%    100.00% |           0      0.00%    100.00% |           0      0.00%    100.00% |           0      0.00%    100.00% |           0      0.00%    100.00% (Unspecified)
system.caches.RequestType.ST.hit_latency_hist_seqr::total            1                       (Unspecified)
system.caches.RequestType.IFETCH.latency_hist_seqr::bucket_size            8                       (Unspecified)
system.caches.RequestType.IFETCH.latency_hist_seqr::max_bucket           79                       (Unspecified)
system.caches.RequestType.IFETCH.latency_hist_seqr::samples           12                       (Unspecified)
system.caches.RequestType.IFETCH.latency_hist_seqr::mean     6.833333                       (Unspecified)
system.caches.RequestType.IFETCH.latency_hist_seqr::gmean     1.426499                       (Unspecified)
system.caches.RequestType.IFETCH.latency_hist_seqr::stdev    20.207259                       (Unspecified)
system.caches.RequestType.IFETCH.latency_hist_seqr |          11     91.67%     91.67% |           0      0.00%     91.67% |           0      0.00%     91.67% |           0      0.00%     91.67% |           0      0.00%     91.67% |           0      0.00%     91.67% |           0      0.00%     91.67% |           0      0.00%     91.67% |           1      8.33%    100.00% |           0      0.00%    100.00% (Unspecified)
system.caches.RequestType.IFETCH.latency_hist_seqr::total           12                       (Unspecified)
system.caches.RequestType.IFETCH.hit_latency_hist_seqr::bucket_size            1                       (Unspecified)
system.caches.RequestType.IFETCH.hit_latency_hist_seqr::max_bucket            9                       (Unspecified)
system.caches.RequestType.IFETCH.hit_latency_hist_seqr::samples           11                       (Unspecified)
system.caches.RequestType.IFETCH.hit_latency_hist_seqr::mean            1                       (Unspecified)
system.caches.RequestType.IFETCH.hit_latency_hist_seqr::gmean            1                       (Unspecified)
system.caches.RequestType.IFETCH.hit_latency_hist_seqr |           0      0.00%      0.00% |          11    100.00%    100.00% |           0      0.00%    100.00% |           0      0.00%    100.00% |           0      0.00%    100.00% |           0      0.00%    100.00% |           0      0.00%    100.00% |           0      0.00%    100.00% |           0      0.00%    100.00% |           0      0.00%    100.00% (Unspecified)
system.caches.RequestType.IFETCH.hit_latency_hist_seqr::total           11                       (Unspecified)
system.caches.RequestType.IFETCH.miss_latency_hist_seqr::bucket_size            8                       (Unspecified)
system.caches.RequestType.IFETCH.miss_latency_hist_seqr::max_bucket           79                       (Unspecified)
system.caches.RequestType.IFETCH.miss_latency_hist_seqr::samples            1                       (Unspecified)
system.caches.RequestType.IFETCH.miss_latency_hist_seqr::mean           71                       (Unspecified)
system.caches.RequestType.IFETCH.miss_latency_hist_seqr::gmean           71                       (Unspecified)
system.caches.RequestType.IFETCH.miss_latency_hist_seqr::stdev          nan                       (Unspecified)
system.caches.RequestType.IFETCH.miss_latency_hist_seqr |           0      0.00%      0.00% |           0      0.00%      0.00% |           0      0.00%      0.00% |           0      0.00%      0.00% |           0      0.00%      0.00% |           0      0.00%      0.00% |           0      0.00%      0.00% |           0      0.00%      0.00% |           1    100.00%    100.00% |           0      0.00%    100.00% (Unspecified)
system.caches.RequestType.IFETCH.miss_latency_hist_seqr::total            1                       (Unspecified)
system.caches.RequestTypeMachineType.LD.Directory.miss_type_mach_latency_hist_seqr::bucket_size           32                       (Unspecified)
system.caches.RequestTypeMachineType.LD.Directory.miss_type_mach_latency_hist_seqr::max_bucket          319                       (Unspecified)
system.caches.RequestTypeMachineType.LD.Directory.miss_type_mach_latency_hist_seqr::samples           16                       (Unspecified)
system.caches.RequestTypeMachineType.LD.Directory.miss_type_mach_latency_hist_seqr::mean    67.187500                       (Unspecified)
system.caches.RequestTypeMachineType.LD.Directory.miss_type_mach_latency_hist_seqr::gmean    63.050061                       (Unspecified)
system.caches.RequestTypeMachineType.LD.Directory.miss_type_mach_latency_hist_seqr::stdev    34.008271                       (Unspecified)
system.caches.RequestTypeMachineType.LD.Directory.miss_type_mach_latency_hist_seqr |           0      0.00%      0.00% |          14     87.50%     87.50% |           1      6.25%     93.75% |           0      0.00%     93.75% |           0      0.00%     93.75% |           0      0.00%     93.75% |           1      6.25%    100.00% |           0      0.00%    100.00% |           0      0.00%    100.00% |           0      0.00%    100.00% (Unspecified)
system.caches.RequestTypeMachineType.LD.Directory.miss_type_mach_latency_hist_seqr::total           16                       (Unspecified)
system.caches.RequestTypeMachineType.IFETCH.Directory.miss_type_mach_latency_hist_seqr::bucket_size            8                       (Unspecified)
system.caches.RequestTypeMachineType.IFETCH.Directory.miss_type_mach_latency_hist_seqr::max_bucket           79                       (Unspecified)
system.caches.RequestTypeMachineType.IFETCH.Directory.miss_type_mach_latency_hist_seqr::samples            1                       (Unspecified)
system.caches.RequestTypeMachineType.IFETCH.Directory.miss_type_mach_latency_hist_seqr::mean           71                       (Unspecified)
system.caches.RequestTypeMachineType.IFETCH.Directory.miss_type_mach_latency_hist_seqr::gmean           71                       (Unspecified)
system.caches.RequestTypeMachineType.IFETCH.Directory.miss_type_mach_latency_hist_seqr::stdev          nan                       (Unspecified)
system.caches.RequestTypeMachineType.IFETCH.Directory.miss_type_mach_latency_hist_seqr |           0      0.00%      0.00% |           0      0.00%      0.00% |           0      0.00%      0.00% |           0      0.00%      0.00% |           0      0.00%      0.00% |           0      0.00%      0.00% |           0      0.00%      0.00% |           0      0.00%      0.00% |           1    100.00%    100.00% |           0      0.00%    100.00% (Unspecified)
system.caches.RequestTypeMachineType.IFETCH.Directory.miss_type_mach_latency_hist_seqr::total            1                       (Unspecified)
system.caches.controllers0.delayHistogram::samples       540008                       # delay_histogram (Unspecified)
system.caches.controllers0.delayHistogram::mean     0.399716                       # delay_histogram (Unspecified)
system.caches.controllers0.delayHistogram::stdev     1.836364                       # delay_histogram (Unspecified)
system.caches.controllers0.delayHistogram::0-7       534650     99.01%     99.01% # delay_histogram (Unspecified)
system.caches.controllers0.delayHistogram::8-15         3775      0.70%     99.71% # delay_histogram (Unspecified)
system.caches.controllers0.delayHistogram::16-23         1015      0.19%     99.89% # delay_histogram (Unspecified)
system.caches.controllers0.delayHistogram::24-31          379      0.07%     99.97% # delay_histogram (Unspecified)
system.caches.controllers0.delayHistogram::32-39          130      0.02%     99.99% # delay_histogram (Unspecified)
system.caches.controllers0.delayHistogram::40-47           43      0.01%    100.00% # delay_histogram (Unspecified)
system.caches.controllers0.delayHistogram::48-55           10      0.00%    100.00% # delay_histogram (Unspecified)
system.caches.controllers0.delayHistogram::56-63            4      0.00%    100.00% # delay_histogram (Unspecified)
system.caches.controllers0.delayHistogram::64-71            2      0.00%    100.00% # delay_histogram (Unspecified)
system.caches.controllers0.delayHistogram::total       540008                       # delay_histogram (Unspecified)
system.caches.controllers0.cacheMemory.m_demand_hits      1724200                       # Number of cache demand hits (Unspecified)
system.caches.controllers0.cacheMemory.m_demand_misses       270021                       # Number of cache demand misses (Unspecified)
system.caches.controllers0.cacheMemory.m_demand_accesses      1994221                       # Number of cache demand accesses (Unspecified)
system.caches.controllers0.forwardToCache.m_buf_msgs     0.021502                       # Average number of messages in buffer (Unspecified)
system.caches.controllers0.forwardToCache.m_stall_time  5193.522923                       # Average number of cycles messages are stalled in this MB (Unspecified)
system.caches.controllers0.mandatoryQueue.m_buf_msgs     0.248261                       # Average number of messages in buffer (Unspecified)
system.caches.controllers0.mandatoryQueue.m_stall_time  1342.321823                       # Average number of cycles messages are stalled in this MB (Unspecified)
system.caches.controllers0.power_state.pwrStateResidencyTicks::UNDEFINED  12556652000                       # Cumulative time (in ticks) in various power states (Tick)
system.caches.controllers0.requestFromCache.m_buf_msgs     0.086012                       # Average number of messages in buffer (Unspecified)
system.caches.controllers0.requestFromCache.m_stall_time  1999.999522                       # Average number of cycles messages are stalled in this MB (Unspecified)
system.caches.controllers0.responseToCache.m_buf_msgs     0.021504                       # Average number of messages in buffer (Unspecified)
system.caches.controllers0.responseToCache.m_stall_time  5026.872689                       # Average number of cycles messages are stalled in this MB (Unspecified)
system.caches.controllers1.forwardFromDir.m_buf_msgs     0.021502                       # Average number of messages in buffer (Unspecified)
system.caches.controllers1.forwardFromDir.m_stall_time   999.929918                       # Average number of cycles messages are stalled in this MB (Unspecified)
system.caches.controllers1.power_state.pwrStateResidencyTicks::UNDEFINED  12556652000                       # Cumulative time (in ticks) in various power states (Tick)
system.caches.controllers1.requestToDir.m_buf_msgs     0.043006                       # Average number of messages in buffer (Unspecified)
system.caches.controllers1.requestToDir.m_stall_time 10707.714445                       # Average number of cycles messages are stalled in this MB (Unspecified)
system.caches.controllers1.requestToMemory.m_buf_msgs     0.043158                       # Average number of messages in buffer (Unspecified)
system.caches.controllers1.requestToMemory.m_stall_time  1000.657341                       # Average number of cycles messages are stalled in this MB (Unspecified)
system.caches.controllers1.responseFromDir.m_buf_msgs     0.021504                       # Average number of messages in buffer (Unspecified)
system.caches.controllers1.responseFromDir.m_stall_time   999.994505                       # Average number of cycles messages are stalled in this MB (Unspecified)
system.caches.controllers1.responseFromMemory.m_buf_msgs     0.049602                       # Average number of messages in buffer (Unspecified)
system.caches.controllers1.responseFromMemory.m_stall_time   999.994585                       # Average number of cycles messages are stalled in this MB (Unspecified)
system.caches.network.msg_count.Control        540042                       (Unspecified)
system.caches.network.msg_byte.Control        4320336                       (Unspecified)
system.caches.network.msg_count.Data           539978                       (Unspecified)
system.caches.network.msg_byte.Data          38878416                       (Unspecified)
system.caches.network.msg_count.Response_Data       540038                       (Unspecified)
system.caches.network.msg_byte.Response_Data     38882736                       (Unspecified)
system.caches.network.msg_count.Writeback_Control       539978                       (Unspecified)
system.caches.network.msg_byte.Writeback_Control      4319824                       (Unspecified)
system.caches.network.int_link_buffers2.m_buf_msgs     0.000012                       # Average number of messages in buffer (Unspecified)
system.caches.network.int_link_buffers2.m_stall_time  7999.911021                       # Average number of cycles messages are stalled in this MB (Unspecified)
system.caches.network.int_link_buffers8.m_buf_msgs     0.000006                       # Average number of messages in buffer (Unspecified)
system.caches.network.int_link_buffers8.m_stall_time         3000                       # Average number of cycles messages are stalled in this MB (Unspecified)
system.caches.network.int_link_buffers9.m_buf_msgs     0.000005                       # Average number of messages in buffer (Unspecified)
system.caches.network.int_link_buffers9.m_stall_time         3000                       # Average number of cycles messages are stalled in this MB (Unspecified)
system.caches.network.power_state.pwrStateResidencyTicks::UNDEFINED  12556652000                       # Cumulative time (in ticks) in various power states (Tick)
system.caches.network.routers0.percent_links_utilized     0.002876                       (Unspecified)
system.caches.network.routers0.msg_count.Control::2       270021                       (Unspecified)
system.caches.network.routers0.msg_bytes.Control::2      2160168                       (Unspecified)
system.caches.network.routers0.msg_count.Data::2       269989                       (Unspecified)
system.caches.network.routers0.msg_bytes.Data::2     19439208                       (Unspecified)
system.caches.network.routers0.msg_count.Response_Data::4       270019                       (Unspecified)
system.caches.network.routers0.msg_bytes.Response_Data::4     19441368                       (Unspecified)
system.caches.network.routers0.msg_count.Writeback_Control::3       269989                       (Unspecified)
system.caches.network.routers0.msg_bytes.Writeback_Control::3      2159912                       (Unspecified)
system.caches.network.routers0.port_buffers3.m_buf_msgs     0.021502                       # Average number of messages in buffer (Unspecified)
system.caches.network.routers0.port_buffers3.m_stall_time  4193.593643                       # Average number of cycles messages are stalled in this MB (Unspecified)
system.caches.network.routers0.port_buffers4.m_buf_msgs     0.021504                       # Average number of messages in buffer (Unspecified)
system.caches.network.routers0.port_buffers4.m_stall_time  4026.878821                       # Average number of cycles messages are stalled in this MB (Unspecified)
system.caches.network.routers0.port_buffers7.m_buf_msgs     0.194037                       # Average number of messages in buffer (Unspecified)
system.caches.network.routers0.port_buffers7.m_stall_time  7707.717790                       # Average number of cycles messages are stalled in this MB (Unspecified)
system.caches.network.routers0.power_state.pwrStateResidencyTicks::UNDEFINED  12556652000                       # Cumulative time (in ticks) in various power states (Tick)
system.caches.network.routers0.throttle00.link_utilization     0.002733                       (Unspecified)
system.caches.network.routers0.throttle00.msg_count.Response_Data::4       270019                       (Unspecified)
system.caches.network.routers0.throttle00.msg_bytes.Response_Data::4     19441368                       (Unspecified)
system.caches.network.routers0.throttle00.msg_count.Writeback_Control::3       269989                       (Unspecified)
system.caches.network.routers0.throttle00.msg_bytes.Writeback_Control::3      2159912                       (Unspecified)
system.caches.network.routers0.throttle01.link_utilization     0.003019                       (Unspecified)
system.caches.network.routers0.throttle01.msg_count.Control::2       270021                       (Unspecified)
system.caches.network.routers0.throttle01.msg_bytes.Control::2      2160168                       (Unspecified)
system.caches.network.routers0.throttle01.msg_count.Data::2       269989                       (Unspecified)
system.caches.network.routers0.throttle01.msg_bytes.Data::2     19439208                       (Unspecified)
system.caches.network.routers1.percent_links_utilized     0.002876                       (Unspecified)
system.caches.network.routers1.msg_count.Control::2       270021                       (Unspecified)
system.caches.network.routers1.msg_bytes.Control::2      2160168                       (Unspecified)
system.caches.network.routers1.msg_count.Data::2       269989                       (Unspecified)
system.caches.network.routers1.msg_bytes.Data::2     19439208                       (Unspecified)
system.caches.network.routers1.msg_count.Response_Data::4       270019                       (Unspecified)
system.caches.network.routers1.msg_bytes.Response_Data::4     19441368                       (Unspecified)
system.caches.network.routers1.msg_count.Writeback_Control::3       269989                       (Unspecified)
system.caches.network.routers1.msg_bytes.Writeback_Control::3      2159912                       (Unspecified)
system.caches.network.routers1.port_buffers2.m_buf_msgs     0.043006                       # Average number of messages in buffer (Unspecified)
system.caches.network.routers1.port_buffers2.m_stall_time  9707.715719                       # Average number of cycles messages are stalled in this MB (Unspecified)
system.caches.network.routers1.port_buffers6.m_buf_msgs     0.029180                       # Average number of messages in buffer (Unspecified)
system.caches.network.routers1.port_buffers6.m_stall_time  2193.734604                       # Average number of cycles messages are stalled in this MB (Unspecified)
system.caches.network.routers1.port_buffers7.m_buf_msgs     0.022421                       # Average number of messages in buffer (Unspecified)
system.caches.network.routers1.port_buffers7.m_stall_time  2026.890607                       # Average number of cycles messages are stalled in this MB (Unspecified)
system.caches.network.routers1.power_state.pwrStateResidencyTicks::UNDEFINED  12556652000                       # Cumulative time (in ticks) in various power states (Tick)
system.caches.network.routers1.throttle00.link_utilization     0.003019                       (Unspecified)
system.caches.network.routers1.throttle00.msg_count.Control::2       270021                       (Unspecified)
system.caches.network.routers1.throttle00.msg_bytes.Control::2      2160168                       (Unspecified)
system.caches.network.routers1.throttle00.msg_count.Data::2       269989                       (Unspecified)
system.caches.network.routers1.throttle00.msg_bytes.Data::2     19439208                       (Unspecified)
system.caches.network.routers1.throttle01.link_utilization     0.002733                       (Unspecified)
system.caches.network.routers1.throttle01.msg_count.Response_Data::4       270019                       (Unspecified)
system.caches.network.routers1.throttle01.msg_bytes.Response_Data::4     19441368                       (Unspecified)
system.caches.network.routers1.throttle01.msg_count.Writeback_Control::3       269989                       (Unspecified)
system.caches.network.routers1.throttle01.msg_bytes.Writeback_Control::3      2159912                       (Unspecified)
system.caches.power_state.pwrStateResidencyTicks::UNDEFINED  12556652000                       # Cumulative time (in ticks) in various power states (Tick)
system.caches.sequencers.power_state.pwrStateResidencyTicks::UNDEFINED  12556652000                       # Cumulative time (in ticks) in various power states (Tick)
system.caches.sys_port_proxy.power_state.pwrStateResidencyTicks::UNDEFINED  12556652000                       # Cumulative time (in ticks) in various power states (Tick)
system.clk_domain.clock                          1000                       # Clock period in ticks (Tick)
system.clk_domain.voltage_domain.voltage            1                       # Voltage in Volts (Volt)
system.cpu.numCycles                          3146799                       # Number of cpu cycles simulated (Cycle)
system.cpu.numWorkItemsStarted                      0                       # Number of work items this cpu started (Count)
system.cpu.numWorkItemsCompleted                    0                       # Number of work items this cpu completed (Count)
system.cpu.instsAdded                         8388685                       # Number of instructions added to the IQ (excludes non-spec) (Count)
system.cpu.nonSpecInstsAdded                        3                       # Number of non-speculative instructions added to the IQ (Count)
system.cpu.instsIssued                        8388681                       # Number of instructions issued (Count)
system.cpu.squashedInstsExamined                   49                       # Number of squashed instructions iterated over during squash; mainly for profiling (Count)
system.cpu.squashedOperandsExamined                22                       # Number of squashed operands that are examined and possibly removed from graph (Count)
system.cpu.squashedNonSpecRemoved                   2                       # Number of squashed non-spec instructions that were removed (Count)
system.cpu.numIssuedDist::samples             3146799                       # Number of insts issued each cycle (Count)
system.cpu.numIssuedDist::mean               2.665782                       # Number of insts issued each cycle (Count)
system.cpu.numIssuedDist::stdev              1.334005                       # Number of insts issued each cycle (Count)
system.cpu.numIssuedDist::underflows                0      0.00%      0.00% # Number of insts issued each cycle (Count)
system.cpu.numIssuedDist::0                      1010      0.03%      0.03% # Number of insts issued each cycle (Count)
system.cpu.numIssuedDist::1                    699133     22.22%     22.25% # Number of insts issued each cycle (Count)
system.cpu.numIssuedDist::2                   1048549     33.32%     55.57% # Number of insts issued each cycle (Count)
system.cpu.numIssuedDist::3                    349533     11.11%     66.68% # Number of insts issued each cycle (Count)
system.cpu.numIssuedDist::4                    699038     22.21%     88.89% # Number of insts issued each cycle (Count)
system.cpu.numIssuedDist::5                    349517     11.11%    100.00% # Number of insts issued each cycle (Count)
system.cpu.numIssuedDist::6                        19      0.00%    100.00% # Number of insts issued each cycle (Count)
system.cpu.numIssuedDist::7                         0      0.00%    100.00% # Number of insts issued each cycle (Count)
system.cpu.numIssuedDist::8                         0      0.00%    100.00% # Number of insts issued each cycle (Count)
system.cpu.numIssuedDist::overflows                 0      0.00%    100.00% # Number of insts issued each cycle (Count)
system.cpu.numIssuedDist::min_value                 0                       # Number of insts issued each cycle (Count)
system.cpu.numIssuedDist::max_value                 6                       # Number of insts issued each cycle (Count)
system.cpu.numIssuedDist::total               3146799                       # Number of insts issued each cycle (Count)
system.cpu.statFuBusy::No_OpClass                   0      0.00%      0.00% # attempts to use FU when none available (Count)
system.cpu.statFuBusy::IntAlu                       9    100.00%    100.00% # attempts to use FU when none available (Count)
system.cpu.statFuBusy::IntMult                      0      0.00%    100.00% # attempts to use FU when none available (Count)
system.cpu.statFuBusy::IntDiv                       0      0.00%    100.00% # attempts to use FU when none available (Count)
system.cpu.statFuBusy::FloatAdd                     0      0.00%    100.00% # attempts to use FU when none available (Count)
system.cpu.statFuBusy::FloatCmp                     0      0.00%    100.00% # attempts to use FU when none available (Count)
system.cpu.statFuBusy::FloatCvt                     0      0.00%    100.00% # attempts to use FU when none available (Count)
system.cpu.statFuBusy::FloatMult                    0      0.00%    100.00% # attempts to use FU when none available (Count)
system.cpu.statFuBusy::FloatMultAcc                 0      0.00%    100.00% # attempts to use FU when none available (Count)
system.cpu.statFuBusy::FloatDiv                     0      0.00%    100.00% # attempts to use FU when none available (Count)
system.cpu.statFuBusy::FloatMisc                    0      0.00%    100.00% # attempts to use FU when none available (Count)
system.cpu.statFuBusy::FloatSqrt                    0      0.00%    100.00% # attempts to use FU when none available (Count)
system.cpu.statFuBusy::SimdAdd                      0      0.00%    100.00% # attempts to use FU when none available (Count)
system.cpu.statFuBusy::SimdAddAcc                   0      0.00%    100.00% # attempts to use FU when none available (Count)
system.cpu.statFuBusy::SimdAlu                      0      0.00%    100.00% # attempts to use FU when none available (Count)
system.cpu.statFuBusy::SimdCmp                      0      0.00%    100.00% # attempts to use FU when none available (Count)
system.cpu.statFuBusy::SimdCvt                      0      0.00%    100.00% # attempts to use FU when none available (Count)
system.cpu.statFuBusy::SimdMisc                     0      0.00%    100.00% # attempts to use FU when none available (Count)
system.cpu.statFuBusy::SimdMult                     0      0.00%    100.00% # attempts to use FU when none available (Count)
system.cpu.statFuBusy::SimdMultAcc                  0      0.00%    100.00% # attempts to use FU when none available (Count)
system.cpu.statFuBusy::SimdShift                    0      0.00%    100.00% # attempts to use FU when none available (Count)
system.cpu.statFuBusy::SimdShiftAcc                 0      0.00%    100.00% # attempts to use FU when none available (Count)
system.cpu.statFuBusy::SimdDiv                      0      0.00%    100.00% # attempts to use FU when none available (Count)
system.cpu.statFuBusy::SimdSqrt                     0      0.00%    100.00% # attempts to use FU when none available (Count)
system.cpu.statFuBusy::SimdFloatAdd                 0      0.00%    100.00% # attempts to use FU when none available (Count)
system.cpu.statFuBusy::SimdFloatAlu                 0      0.00%    100.00% # attempts to use FU when none available (Count)
system.cpu.statFuBusy::SimdFloatCmp                 0      0.00%    100.00% # attempts to use FU when none available (Count)
system.cpu.statFuBusy::SimdFloatCvt                 0      0.00%    100.00% # attempts to use FU when none available (Count)
system.cpu.statFuBusy::SimdFloatDiv                 0      0.00%    100.00% # attempts to use FU when none available (Count)
system.cpu.statFuBusy::SimdFloatMisc                0      0.00%    100.00% # attempts to use FU when none available (Count)
system.cpu.statFuBusy::SimdFloatMult                0      0.00%    100.00% # attempts to use FU when none available (Count)
system.cpu.statFuBusy::SimdFloatMultAcc             0      0.00%    100.00% # attempts to use FU when none available (Count)
system.cpu.statFuBusy::SimdFloatSqrt                0      0.00%    100.00% # attempts to use FU when none available (Count)
system.cpu.statFuBusy::SimdReduceAdd                0      0.00%    100.00% # attempts to use FU when none available (Count)
system.cpu.statFuBusy::SimdReduceAlu                0      0.00%    100.00% # attempts to use FU when none available (Count)
system.cpu.statFuBusy::SimdReduceCmp                0      0.00%    100.00% # attempts to use FU when none available (Count)
system.cpu.statFuBusy::SimdFloatReduceAdd            0      0.00%    100.00% # attempts to use FU when none available (Count)
system.cpu.statFuBusy::SimdFloatReduceCmp            0      0.00%    100.00% # attempts to use FU when none available (Count)
system.cpu.statFuBusy::SimdAes                      0      0.00%    100.00% # attempts to use FU when none available (Count)
system.cpu.statFuBusy::SimdAesMix                   0      0.00%    100.00% # attempts to use FU when none available (Count)
system.cpu.statFuBusy::SimdSha1Hash                 0      0.00%    100.00% # attempts to use FU when none available (Count)
system.cpu.statFuBusy::SimdSha1Hash2                0      0.00%    100.00% # attempts to use FU when none available (Count)
system.cpu.statFuBusy::SimdSha256Hash               0      0.00%    100.00% # attempts to use FU when none available (Count)
system.cpu.statFuBusy::SimdSha256Hash2              0      0.00%    100.00% # attempts to use FU when none available (Count)
system.cpu.statFuBusy::SimdShaSigma2                0      0.00%    100.00% # attempts to use FU when none available (Count)
system.cpu.statFuBusy::SimdShaSigma3                0      0.00%    100.00% # attempts to use FU when none available (Count)
system.cpu.statFuBusy::SimdPredAlu                  0      0.00%    100.00% # attempts to use FU when none available (Count)
system.cpu.statFuBusy::MemRead                      0      0.00%    100.00% # attempts to use FU when none available (Count)
system.cpu.statFuBusy::MemWrite                     0      0.00%    100.00% # attempts to use FU when none available (Count)
system.cpu.statFuBusy::FloatMemRead                 0      0.00%    100.00% # attempts to use FU when none available (Count)
system.cpu.statFuBusy::FloatMemWrite                0      0.00%    100.00% # attempts to use FU when none available (Count)
system.cpu.statFuBusy::IprAccess                    0      0.00%    100.00% # attempts to use FU when none available (Count)
system.cpu.statFuBusy::InstPrefetch                 0      0.00%    100.00% # attempts to use FU when none available (Count)
system.cpu.statIssuedInstType_0::No_OpClass            1      0.00%      0.00% # Number of instructions issued per FU type, per thread (Count)
system.cpu.statIssuedInstType_0::IntAlu       7340093     87.50%     87.50% # Number of instructions issued per FU type, per thread (Count)
system.cpu.statIssuedInstType_0::IntMult            0      0.00%     87.50% # Number of instructions issued per FU type, per thread (Count)
system.cpu.statIssuedInstType_0::IntDiv             0      0.00%     87.50% # Number of instructions issued per FU type, per thread (Count)
system.cpu.statIssuedInstType_0::FloatAdd            0      0.00%     87.50% # Number of instructions issued per FU type, per thread (Count)
system.cpu.statIssuedInstType_0::FloatCmp            0      0.00%     87.50% # Number of instructions issued per FU type, per thread (Count)
system.cpu.statIssuedInstType_0::FloatCvt            0      0.00%     87.50% # Number of instructions issued per FU type, per thread (Count)
system.cpu.statIssuedInstType_0::FloatMult            0      0.00%     87.50% # Number of instructions issued per FU type, per thread (Count)
system.cpu.statIssuedInstType_0::FloatMultAcc            0      0.00%     87.50% # Number of instructions issued per FU type, per thread (Count)
system.cpu.statIssuedInstType_0::FloatDiv            0      0.00%     87.50% # Number of instructions issued per FU type, per thread (Count)
system.cpu.statIssuedInstType_0::FloatMisc            0      0.00%     87.50% # Number of instructions issued per FU type, per thread (Count)
system.cpu.statIssuedInstType_0::FloatSqrt            0      0.00%     87.50% # Number of instructions issued per FU type, per thread (Count)
system.cpu.statIssuedInstType_0::SimdAdd            0      0.00%     87.50% # Number of instructions issued per FU type, per thread (Count)
system.cpu.statIssuedInstType_0::SimdAddAcc            0      0.00%     87.50% # Number of instructions issued per FU type, per thread (Count)
system.cpu.statIssuedInstType_0::SimdAlu            0      0.00%     87.50% # Number of instructions issued per FU type, per thread (Count)
system.cpu.statIssuedInstType_0::SimdCmp            0      0.00%     87.50% # Number of instructions issued per FU type, per thread (Count)
system.cpu.statIssuedInstType_0::SimdCvt            0      0.00%     87.50% # Number of instructions issued per FU type, per thread (Count)
system.cpu.statIssuedInstType_0::SimdMisc            0      0.00%     87.50% # Number of instructions issued per FU type, per thread (Count)
system.cpu.statIssuedInstType_0::SimdMult            0      0.00%     87.50% # Number of instructions issued per FU type, per thread (Count)
system.cpu.statIssuedInstType_0::SimdMultAcc            0      0.00%     87.50% # Number of instructions issued per FU type, per thread (Count)
system.cpu.statIssuedInstType_0::SimdShift            0      0.00%     87.50% # Number of instructions issued per FU type, per thread (Count)
system.cpu.statIssuedInstType_0::SimdShiftAcc            0      0.00%     87.50% # Number of instructions issued per FU type, per thread (Count)
system.cpu.statIssuedInstType_0::SimdDiv            0      0.00%     87.50% # Number of instructions issued per FU type, per thread (Count)
system.cpu.statIssuedInstType_0::SimdSqrt            0      0.00%     87.50% # Number of instructions issued per FU type, per thread (Count)
system.cpu.statIssuedInstType_0::SimdFloatAdd            0      0.00%     87.50% # Number of instructions issued per FU type, per thread (Count)
system.cpu.statIssuedInstType_0::SimdFloatAlu            0      0.00%     87.50% # Number of instructions issued per FU type, per thread (Count)
system.cpu.statIssuedInstType_0::SimdFloatCmp            0      0.00%     87.50% # Number of instructions issued per FU type, per thread (Count)
system.cpu.statIssuedInstType_0::SimdFloatCvt            0      0.00%     87.50% # Number of instructions issued per FU type, per thread (Count)
system.cpu.statIssuedInstType_0::SimdFloatDiv            0      0.00%     87.50% # Number of instructions issued per FU type, per thread (Count)
system.cpu.statIssuedInstType_0::SimdFloatMisc            0      0.00%     87.50% # Number of instructions issued per FU type, per thread (Count)
system.cpu.statIssuedInstType_0::SimdFloatMult            0      0.00%     87.50% # Number of instructions issued per FU type, per thread (Count)
system.cpu.statIssuedInstType_0::SimdFloatMultAcc            0      0.00%     87.50% # Number of instructions issued per FU type, per thread (Count)
system.cpu.statIssuedInstType_0::SimdFloatSqrt            0      0.00%     87.50% # Number of instructions issued per FU type, per thread (Count)
system.cpu.statIssuedInstType_0::SimdReduceAdd            0      0.00%     87.50% # Number of instructions issued per FU type, per thread (Count)
system.cpu.statIssuedInstType_0::SimdReduceAlu            0      0.00%     87.50% # Number of instructions issued per FU type, per thread (Count)
system.cpu.statIssuedInstType_0::SimdReduceCmp            0      0.00%     87.50% # Number of instructions issued per FU type, per thread (Count)
system.cpu.statIssuedInstType_0::SimdFloatReduceAdd            0      0.00%     87.50% # Number of instructions issued per FU type, per thread (Count)
system.cpu.statIssuedInstType_0::SimdFloatReduceCmp            0      0.00%     87.50% # Number of instructions issued per FU type, per thread (Count)
system.cpu.statIssuedInstType_0::SimdAes            0      0.00%     87.50% # Number of instructions issued per FU type, per thread (Count)
system.cpu.statIssuedInstType_0::SimdAesMix            0      0.00%     87.50% # Number of instructions issued per FU type, per thread (Count)
system.cpu.statIssuedInstType_0::SimdSha1Hash            0      0.00%     87.50% # Number of instructions issued per FU type, per thread (Count)
system.cpu.statIssuedInstType_0::SimdSha1Hash2            0      0.00%     87.50% # Number of instructions issued per FU type, per thread (Count)
system.cpu.statIssuedInstType_0::SimdSha256Hash            0      0.00%     87.50% # Number of instructions issued per FU type, per thread (Count)
system.cpu.statIssuedInstType_0::SimdSha256Hash2            0      0.00%     87.50% # Number of instructions issued per FU type, per thread (Count)
system.cpu.statIssuedInstType_0::SimdShaSigma2            0      0.00%     87.50% # Number of instructions issued per FU type, per thread (Count)
system.cpu.statIssuedInstType_0::SimdShaSigma3            0      0.00%     87.50% # Number of instructions issued per FU type, per thread (Count)
system.cpu.statIssuedInstType_0::SimdPredAlu            0      0.00%     87.50% # Number of instructions issued per FU type, per thread (Count)
system.cpu.statIssuedInstType_0::MemRead      1048580     12.50%    100.00% # Number of instructions issued per FU type, per thread (Count)
system.cpu.statIssuedInstType_0::MemWrite            7      0.00%    100.00% # Number of instructions issued per FU type, per thread (Count)
system.cpu.statIssuedInstType_0::FloatMemRead            0      0.00%    100.00% # Number of instructions issued per FU type, per thread (Count)
system.cpu.statIssuedInstType_0::FloatMemWrite            0      0.00%    100.00% # Number of instructions issued per FU type, per thread (Count)
system.cpu.statIssuedInstType_0::IprAccess            0      0.00%    100.00% # Number of instructions issued per FU type, per thread (Count)
system.cpu.statIssuedInstType_0::InstPrefetch            0      0.00%    100.00% # Number of instructions issued per FU type, per thread (Count)
system.cpu.statIssuedInstType_0::total        8388681                       # Number of instructions issued per FU type, per thread (Count)
system.cpu.issueRate                         2.665782                       # Inst issue rate ((Count/Cycle))
system.cpu.fuBusy                                   9                       # FU busy when requested (Count)
system.cpu.fuBusyRate                        0.000001                       # FU busy rate (busy events/executed inst) ((Count/Count))
system.cpu.intInstQueueReads                 19924171                       # Number of integer instruction queue reads (Count)
system.cpu.intInstQueueWrites                 8388737                       # Number of integer instruction queue writes (Count)
system.cpu.intInstQueueWakeupAccesses         8388673                       # Number of integer instruction queue wakeup accesses (Count)
system.cpu.fpInstQueueReads                         0                       # Number of floating instruction queue reads (Count)
system.cpu.fpInstQueueWrites                        0                       # Number of floating instruction queue writes (Count)
system.cpu.fpInstQueueWakeupAccesses                0                       # Number of floating instruction queue wakeup accesses (Count)
system.cpu.vecInstQueueReads                        0                       # Number of vector instruction queue reads (Count)
system.cpu.vecInstQueueWrites                       0                       # Number of vector instruction queue writes (Count)
system.cpu.vecInstQueueWakeupAccesses               0                       # Number of vector instruction queue wakeup accesses (Count)
system.cpu.intAluAccesses                     8388689                       # Number of integer alu accesses (Count)
system.cpu.fpAluAccesses                            0                       # Number of floating point alu accesses (Count)
system.cpu.vecAluAccesses                           0                       # Number of vector alu accesses (Count)
system.cpu.idleCycles                               0                       # Number of cycles IEW is idle (Cycle)
system.cpu.squashCycles                             4                       # Number of cycles IEW is squashing (Cycle)
system.cpu.blockCycles                              3                       # Number of cycles IEW is blocking (Cycle)
system.cpu.unblockCycles                            0                       # Number of cycles IEW is unblocking (Cycle)
system.cpu.dispatchedInsts                    8388688                       # Number of instructions dispatched to IQ (Count)
system.cpu.dispSquashedInsts                        4                       # Number of squashed instructions skipped by dispatch (Count)
system.cpu.dispLoadInsts                      1048581                       # Number of dispatched load instructions (Count)
system.cpu.dispStoreInsts                           8                       # Number of dispatched store instructions (Count)
system.cpu.dispNonSpecInsts                         3                       # Number of dispatched non-speculative instructions (Count)
system.cpu.iqFullEvents                             0                       # Number of times the IQ has become full, causing a stall (Count)
system.cpu.lsqFullEvents                            0                       # Number of times the LSQ has become full, causing a stall (Count)
system.cpu.memOrderViolationEvents                  0                       # Number of memory order violations (Count)
system.cpu.predictedTakenIncorrect                  1                       # Number of branches that were predicted taken incorrectly (Count)
system.cpu.predictedNotTakenIncorrect               3                       # Number of branches that were predicted not taken incorrectly (Count)
system.cpu.branchMispredicts                        4                       # Number of branch mispredicts detected at execute (Count)
system.cpu.numInsts                           8388674                       # Number of executed instructions (Count)
system.cpu.numLoadInsts                       1048580                       # Number of load instructions executed (Count)
system.cpu.numSquashedInsts                         8                       # Number of squashed instructions skipped in execute (Count)
system.cpu.numSwp                                   0                       # Number of swp insts executed (Count)
system.cpu.numNop                                   0                       # Number of nop insts executed (Count)
system.cpu.numRefs                            1048586                       # Number of memory reference insts executed (Count)
system.cpu.numBranches                        1048586                       # Number of branches executed (Count)
system.cpu.numStoreInsts                            6                       # Number of stores executed (Count)
system.cpu.numRate                           2.665780                       # Inst execution rate ((Count/Cycle))
system.cpu.instsToCommit                      8388673                       # Cumulative count of insts sent to commit (Count)
system.cpu.writebackCount                     8388673                       # Cumulative count of insts written-back (Count)
system.cpu.producerInst                       7340045                       # Number of instructions producing a value (Count)
system.cpu.consumerInst                       8738163                       # Number of instructions consuming a value (Count)
system.cpu.wbRate                            2.665780                       # Insts written-back per cycle ((Count/Cycle))
system.cpu.wbFanout                          0.839999                       # Average fanout of values written-back ((Count/Count))
system.cpu.committedInsts                     4194313                       # Number of Instructions Simulated (Count)
system.cpu.committedOps                       8388625                       # Number of Ops (including micro ops) Simulated (Count)
system.cpu.cpi                               0.750254                       # CPI: Cycles Per Instruction ((Cycle/Count))
system.cpu.totalCpi                          0.750254                       # CPI: Total CPI of All Threads ((Cycle/Count))
system.cpu.ipc                               1.332882                       # IPC: Instructions Per Cycle ((Count/Cycle))
system.cpu.totalIpc                          1.332882                       # IPC: Total IPC of All Threads ((Count/Cycle))
system.cpu.intRegfileReads                    8388686                       # Number of integer regfile reads (Count)
system.cpu.intRegfileWrites                   7340079                       # Number of integer regfile writes (Count)
system.cpu.ccRegfileReads                     5242894                       # number of cc regfile reads (Count)
system.cpu.ccRegfileWrites                    4194324                       # number of cc regfile writes (Count)
system.cpu.miscRegfileReads                   3145758                       # number of misc regfile reads (Count)
system.cpu.MemDepUnit__0.insertedLoads        1048581                       # Number of loads inserted to the mem dependence unit. (Count)
system.cpu.MemDepUnit__0.insertedStores             8                       # Number of stores inserted to the mem dependence unit. (Count)
system.cpu.MemDepUnit__0.conflictingLoads            0                       # Number of conflicting loads. (Count)
system.cpu.MemDepUnit__0.conflictingStores            0                       # Number of conflicting stores. (Count)
system.cpu.MemDepUnit__1.insertedLoads              0                       # Number of loads inserted to the mem dependence unit. (Count)
system.cpu.MemDepUnit__1.insertedStores             0                       # Number of stores inserted to the mem dependence unit. (Count)
system.cpu.MemDepUnit__1.conflictingLoads            0                       # Number of conflicting loads. (Count)
system.cpu.MemDepUnit__1.conflictingStores            0                       # Number of conflicting stores. (Count)
system.cpu.MemDepUnit__2.insertedLoads              0                       # Number of loads inserted to the mem dependence unit. (Count)
system.cpu.MemDepUnit__2.insertedStores             0                       # Number of stores inserted to the mem dependence unit. (Count)
system.cpu.MemDepUnit__2.conflictingLoads            0                       # Number of conflicting loads. (Count)
system.cpu.MemDepUnit__2.conflictingStores            0                       # Number of conflicting stores. (Count)
system.cpu.MemDepUnit__3.insertedLoads              0                       # Number of loads inserted to the mem dependence unit. (Count)
system.cpu.MemDepUnit__3.insertedStores             0                       # Number of stores inserted to the mem dependence unit. (Count)
system.cpu.MemDepUnit__3.conflictingLoads            0                       # Number of conflicting loads. (Count)
system.cpu.MemDepUnit__3.conflictingStores            0                       # Number of conflicting stores. (Count)
system.cpu.branchPred.lookups                 1048595                       # Number of BP lookups (Count)
system.cpu.branchPred.condPredicted           1048582                       # Number of conditional branches predicted (Count)
system.cpu.branchPred.condIncorrect                 6                       # Number of conditional branches incorrect (Count)
system.cpu.branchPred.BTBLookups              1048588                       # Number of BTB lookups (Count)
system.cpu.branchPred.BTBHits                 1048586                       # Number of BTB hits (Count)
system.cpu.branchPred.BTBHitRatio            0.999998                       # BTB Hit Ratio (Ratio)
system.cpu.branchPred.RASUsed                       4                       # Number of times the RAS was used to get a target. (Count)
system.cpu.branchPred.RASIncorrect                  0                       # Number of incorrect RAS predictions. (Count)
system.cpu.branchPred.indirectLookups               1                       # Number of indirect predictor lookups. (Count)
system.cpu.branchPred.indirectHits                  0                       # Number of indirect target hits. (Count)
system.cpu.branchPred.indirectMisses                1                       # Number of indirect misses. (Count)
system.cpu.branchPred.indirectMispredicted            0                       # Number of mispredicted indirect branches. (Count)
system.cpu.commit.commitSquashedInsts              49                       # The number of squashed insts skipped by commit (Count)
system.cpu.commit.commitNonSpecStalls               1                       # The number of times commit has been forced to stall to communicate backwards (Count)
system.cpu.commit.branchMispredicts                 4                       # The number of times a branch was mispredicted (Count)
system.cpu.commit.numCommittedDist::samples      3146792                       # Number of insts commited each cycle (Count)
system.cpu.commit.numCommittedDist::mean     2.665770                       # Number of insts commited each cycle (Count)
system.cpu.commit.numCommittedDist::stdev     3.770917                       # Number of insts commited each cycle (Count)
system.cpu.commit.numCommittedDist::underflows            0      0.00%      0.00% # Number of insts commited each cycle (Count)
system.cpu.commit.numCommittedDist::0         2098211     66.68%     66.68% # Number of insts commited each cycle (Count)
system.cpu.commit.numCommittedDist::1               1      0.00%     66.68% # Number of insts commited each cycle (Count)
system.cpu.commit.numCommittedDist::2               0      0.00%     66.68% # Number of insts commited each cycle (Count)
system.cpu.commit.numCommittedDist::3               2      0.00%     66.68% # Number of insts commited each cycle (Count)
system.cpu.commit.numCommittedDist::4               0      0.00%     66.68% # Number of insts commited each cycle (Count)
system.cpu.commit.numCommittedDist::5               2      0.00%     66.68% # Number of insts commited each cycle (Count)
system.cpu.commit.numCommittedDist::6               0      0.00%     66.68% # Number of insts commited each cycle (Count)
system.cpu.commit.numCommittedDist::7               0      0.00%     66.68% # Number of insts commited each cycle (Count)
system.cpu.commit.numCommittedDist::8         1048576     33.32%    100.00% # Number of insts commited each cycle (Count)
system.cpu.commit.numCommittedDist::overflows            0      0.00%    100.00% # Number of insts commited each cycle (Count)
system.cpu.commit.numCommittedDist::min_value            0                       # Number of insts commited each cycle (Count)
system.cpu.commit.numCommittedDist::max_value            8                       # Number of insts commited each cycle (Count)
system.cpu.commit.numCommittedDist::total      3146792                       # Number of insts commited each cycle (Count)
system.cpu.commit.instsCommitted              4194313                       # Number of instructions committed (Count)
system.cpu.commit.opsCommitted                8388625                       # Number of ops (including micro ops) committed (Count)
system.cpu.commit.memRefs                     1048578                       # Number of memory references committed (Count)
system.cpu.commit.loads                       1048577                       # Number of loads committed (Count)
system.cpu.commit.amos                              0                       # Number of atomic instructions committed (Count)
system.cpu.commit.membars                           0                       # Number of memory barriers committed (Count)
system.cpu.commit.branches                    1048579                       # Number of branches committed (Count)
system.cpu.commit.vectorInstructions                0                       # Number of committed Vector instructions. (Count)
system.cpu.commit.floating                          0                       # Number of committed floating point instructions. (Count)
system.cpu.commit.integer                     8388623                       # Number of committed integer instructions. (Count)
system.cpu.commit.functionCalls                     1                       # Number of function calls committed. (Count)
system.cpu.commit.committedInstType_0::No_OpClass            1      0.00%      0.00% # Class of committed instruction (Count)
system.cpu.commit.committedInstType_0::IntAlu      7340046     87.50%     87.50% # Class of committed instruction (Count)
system.cpu.commit.committedInstType_0::IntMult            0      0.00%     87.50% # Class of committed instruction (Count)
system.cpu.commit.committedInstType_0::IntDiv            0      0.00%     87.50% # Class of committed instruction (Count)
system.cpu.commit.committedInstType_0::FloatAdd            0      0.00%     87.50% # Class of committed instruction (Count)
system.cpu.commit.committedInstType_0::FloatCmp            0      0.00%     87.50% # Class of committed instruction (Count)
system.cpu.commit.committedInstType_0::FloatCvt            0      0.00%     87.50% # Class of committed instruction (Count)
system.cpu.commit.committedInstType_0::FloatMult            0      0.00%     87.50% # Class of committed instruction (Count)
system.cpu.commit.committedInstType_0::FloatMultAcc            0      0.00%     87.50% # Class of committed instruction (Count)
system.cpu.commit.committedInstType_0::FloatDiv            0      0.00%     87.50% # Class of committed instruction (Count)
system.cpu.commit.committedInstType_0::FloatMisc            0      0.00%     87.50% # Class of committed instruction (Count)
system.cpu.commit.committedInstType_0::FloatSqrt            0      0.00%     87.50% # Class of committed instruction (Count)
system.cpu.commit.committedInstType_0::SimdAdd            0      0.00%     87.50% # Class of committed instruction (Count)
system.cpu.commit.committedInstType_0::SimdAddAcc            0      0.00%     87.50% # Class of committed instruction (Count)
system.cpu.commit.committedInstType_0::SimdAlu            0      0.00%     87.50% # Class of committed instruction (Count)
system.cpu.commit.committedInstType_0::SimdCmp            0      0.00%     87.50% # Class of committed instruction (Count)
system.cpu.commit.committedInstType_0::SimdCvt            0      0.00%     87.50% # Class of committed instruction (Count)
system.cpu.commit.committedInstType_0::SimdMisc            0      0.00%     87.50% # Class of committed instruction (Count)
system.cpu.commit.committedInstType_0::SimdMult            0      0.00%     87.50% # Class of committed instruction (Count)
system.cpu.commit.committedInstType_0::SimdMultAcc            0      0.00%     87.50% # Class of committed instruction (Count)
system.cpu.commit.committedInstType_0::SimdShift            0      0.00%     87.50% # Class of committed instruction (Count)
system.cpu.commit.committedInstType_0::SimdShiftAcc            0      0.00%     87.50% # Class of committed instruction (Count)
system.cpu.commit.committedInstType_0::SimdDiv            0      0.00%     87.50% # Class of committed instruction (Count)
system.cpu.commit.committedInstType_0::SimdSqrt            0      0.00%     87.50% # Class of committed instruction (Count)
system.cpu.commit.committedInstType_0::SimdFloatAdd            0      0.00%     87.50% # Class of committed instruction (Count)
system.cpu.commit.committedInstType_0::SimdFloatAlu            0      0.00%     87.50% # Class of committed instruction (Count)
system.cpu.commit.committedInstType_0::SimdFloatCmp            0      0.00%     87.50% # Class of committed instruction (Count)
system.cpu.commit.committedInstType_0::SimdFloatCvt            0      0.00%     87.50% # Class of committed instruction (Count)
system.cpu.commit.committedInstType_0::SimdFloatDiv            0      0.00%     87.50% # Class of committed instruction (Count)
system.cpu.commit.committedInstType_0::SimdFloatMisc            0      0.00%     87.50% # Class of committed instruction (Count)
system.cpu.commit.committedInstType_0::SimdFloatMult            0      0.00%     87.50% # Class of committed instruction (Count)
system.cpu.commit.committedInstType_0::SimdFloatMultAcc            0      0.00%     87.50% # Class of committed instruction (Count)
system.cpu.commit.committedInstType_0::SimdFloatSqrt            0      0.00%     87.50% # Class of committed instruction (Count)
system.cpu.commit.committedInstType_0::SimdReduceAdd            0      0.00%     87.50% # Class of committed instruction (Count)
system.cpu.commit.committedInstType_0::SimdReduceAlu            0      0.00%     87.50% # Class of committed instruction (Count)
system.cpu.commit.committedInstType_0::SimdReduceCmp            0      0.00%     87.50% # Class of committed instruction (Count)
system.cpu.commit.committedInstType_0::SimdFloatReduceAdd            0      0.00%     87.50% # Class of committed instruction (Count)
system.cpu.commit.committedInstType_0::SimdFloatReduceCmp            0      0.00%     87.50% # Class of committed instruction (Count)
system.cpu.commit.committedInstType_0::SimdAes            0      0.00%     87.50% # Class of committed instruction (Count)
system.cpu.commit.committedInstType_0::SimdAesMix            0      0.00%     87.50% # Class of committed instruction (Count)
system.cpu.commit.committedInstType_0::SimdSha1Hash            0      0.00%     87.50% # Class of committed instruction (Count)
system.cpu.commit.committedInstType_0::SimdSha1Hash2            0      0.00%     87.50% # Class of committed instruction (Count)
system.cpu.commit.committedInstType_0::SimdSha256Hash            0      0.00%     87.50% # Class of committed instruction (Count)
system.cpu.commit.committedInstType_0::SimdSha256Hash2            0      0.00%     87.50% # Class of committed instruction (Count)
system.cpu.commit.committedInstType_0::SimdShaSigma2            0      0.00%     87.50% # Class of committed instruction (Count)
system.cpu.commit.committedInstType_0::SimdShaSigma3            0      0.00%     87.50% # Class of committed instruction (Count)
system.cpu.commit.committedInstType_0::SimdPredAlu            0      0.00%     87.50% # Class of committed instruction (Count)
system.cpu.commit.committedInstType_0::MemRead      1048577     12.50%    100.00% # Class of committed instruction (Count)
system.cpu.commit.committedInstType_0::MemWrite            1      0.00%    100.00% # Class of committed instruction (Count)
system.cpu.commit.committedInstType_0::FloatMemRead            0      0.00%    100.00% # Class of committed instruction (Count)
system.cpu.commit.committedInstType_0::FloatMemWrite            0      0.00%    100.00% # Class of committed instruction (Count)
system.cpu.commit.committedInstType_0::IprAccess            0      0.00%    100.00% # Class of committed instruction (Count)
system.cpu.commit.committedInstType_0::InstPrefetch            0      0.00%    100.00% # Class of committed instruction (Count)
system.cpu.commit.committedInstType_0::total      8388625                       # Class of committed instruction (Count)
system.cpu.commit.commitEligibleSamples       1048576                       # number cycles where commit BW limit reached (Cycle)
system.cpu.decode.idleCycles                   349603                       # Number of cycles decode is idle (Cycle)
system.cpu.decode.blockedCycles               1748600                       # Number of cycles decode is blocked (Cycle)
system.cpu.decode.runCycles                        36                       # Number of cycles decode is running (Cycle)
system.cpu.decode.unblockCycles               1048556                       # Number of cycles decode is unblocking (Cycle)
system.cpu.decode.squashCycles                      4                       # Number of cycles decode is squashing (Cycle)
system.cpu.decode.branchResolved              1048583                       # Number of times decode resolved a branch (Count)
system.cpu.decode.branchMispred                     1                       # Number of times decode detected a branch misprediction (Count)
system.cpu.decode.decodedInsts                8388685                       # Number of instructions handled by decode (Count)
system.cpu.decode.squashedInsts                    16                       # Number of squashed instructions handled by decode (Count)
system.cpu.fetch.icacheStallCycles                 84                       # Number of cycles fetch is stalled on an Icache miss (Cycle)
system.cpu.fetch.insts                        4194360                       # Number of instructions fetch has processed (Count)
system.cpu.fetch.branches                     1048595                       # Number of branches that fetch encountered (Count)
system.cpu.fetch.predictedBranches            1048590                       # Number of branches that fetch has predicted taken (Count)
system.cpu.fetch.cycles                       3146709                       # Number of cycles fetch has run and was not squashing or blocked (Cycle)
system.cpu.fetch.squashCycles                      12                       # Number of cycles fetch has spent squashing (Cycle)
system.cpu.fetch.cacheLines                        14                       # Number of cache lines fetched (Count)
[...]
system.mem_ctrl.rdPerTurnAround::14               893      0.34%      0.38% # Reads before turning the bus around for writes (Count)
system.mem_ctrl.rdPerTurnAround::15             19596      7.53%      7.90% # Reads before turning the bus around for writes (Count)
system.mem_ctrl.rdPerTurnAround::16            234344     90.01%     97.91% # Reads before turning the bus around for writes (Count)
system.mem_ctrl.rdPerTurnAround::17              5390      2.07%     99.98% # Reads before turning the bus around for writes (Count)
system.mem_ctrl.rdPerTurnAround::18                38      0.01%    100.00% # Reads before turning the bus around for writes (Count)
system.mem_ctrl.rdPerTurnAround::19                 5      0.00%    100.00% # Reads before turning the bus around for writes (Count)
system.mem_ctrl.rdPerTurnAround::20                 4      0.00%    100.00% # Reads before turning the bus around for writes (Count)
system.mem_ctrl.rdPerTurnAround::24                 1      0.00%    100.00% # Reads before turning the bus around for writes (Count)
system.mem_ctrl.rdPerTurnAround::total         260362                       # Reads before turning the bus around for writes (Count)
system.mem_ctrl.wrPerTurnAround::samples       260362                       # Writes before turning the bus around for reads (Count)
system.mem_ctrl.wrPerTurnAround::mean       16.007920                       # Writes before turning the bus around for reads (Count)
system.mem_ctrl.wrPerTurnAround::gmean      16.007673                       # Writes before turning the bus around for reads (Count)
system.mem_ctrl.wrPerTurnAround::stdev       0.090950                       # Writes before turning the bus around for reads (Count)
system.mem_ctrl.wrPerTurnAround::16            258337     99.22%     99.22% # Writes before turning the bus around for reads (Count)
system.mem_ctrl.wrPerTurnAround::17              2005      0.77%     99.99% # Writes before turning the bus around for reads (Count)
system.mem_ctrl.wrPerTurnAround::18                 3      0.00%     99.99% # Writes before turning the bus around for reads (Count)
system.mem_ctrl.wrPerTurnAround::19                17      0.01%    100.00% # Writes before turning the bus around for reads (Count)
system.mem_ctrl.wrPerTurnAround::total         260362                       # Writes before turning the bus around for reads (Count)
system.mem_ctrl.bytesReadWrQ                  1536128                       # Total number of bytes read from write queue (Byte)
system.mem_ctrl.bytesReadSys                267100992                       # Total read bytes from the system interface side (Byte)
system.mem_ctrl.bytesWrittenSys             267100992                       # Total written bytes from the system interface side (Byte)
system.mem_ctrl.avgRdBWSys               794095585.00489342                       # Average system read bandwidth in Byte/s ((Byte/Second))
system.mem_ctrl.avgWrBWSys               794095585.00489342                       # Average system write bandwidth in Byte/s ((Byte/Second))
system.mem_ctrl.totGap                   336358742000                       # Total gap between requests (Tick)
system.mem_ctrl.avgGap                       40297.42                       # Average gap between requests ((Tick/Count))
system.mem_ctrl.requestorReadBytes::caches.controllers1    265564864                       # Per-requestor bytes read from memory (Byte)
system.mem_ctrl.requestorWriteBytes::caches.controllers1    266742656                       # Per-requestor bytes write to memory (Byte)
system.mem_ctrl.requestorReadRate::caches.controllers1 789528651.525281310081                       # Per-requestor bytes read from memory rate ((Byte/Second))
system.mem_ctrl.requestorWriteRate::caches.controllers1 793030246.260107636452                       # Per-requestor bytes write to memory rate ((Byte/Second))
system.mem_ctrl.requestorReadAccesses::caches.controllers1      4173453                       # Per-requestor read serviced memory accesses (Count)
system.mem_ctrl.requestorWriteAccesses::caches.controllers1      4173453                       # Per-requestor write serviced memory accesses (Count)
system.mem_ctrl.requestorReadTotalLat::caches.controllers1 167712635000                       # Per-requestor read total memory access latency (Tick)
system.mem_ctrl.requestorWriteTotalLat::caches.controllers1 8326695473500                       # Per-requestor write total memory access latency (Tick)
system.mem_ctrl.requestorReadAvgLat::caches.controllers1     40185.58                       # Per-requestor read average memory access latency ((Tick/Count))
system.mem_ctrl.requestorWriteAvgLat::caches.controllers1   1995157.36                       # Per-requestor write average memory access latency ((Tick/Count))
system.mem_ctrl.dram.bytesRead::caches.controllers1    267100992                       # Number of bytes read from this memory (Byte)
system.mem_ctrl.dram.bytesRead::total       267100992                       # Number of bytes read from this memory (Byte)
system.mem_ctrl.dram.bytesWritten::caches.controllers1    267100992                       # Number of bytes written to this memory (Byte)
system.mem_ctrl.dram.bytesWritten::total    267100992                       # Number of bytes written to this memory (Byte)
system.mem_ctrl.dram.numReads::caches.controllers1      4173453                       # Number of read requests responded to by this memory (Count)
system.mem_ctrl.dram.numReads::total          4173453                       # Number of read requests responded to by this memory (Count)
system.mem_ctrl.dram.numWrites::caches.controllers1      4173453                       # Number of write requests responded to by this memory (Count)
system.mem_ctrl.dram.numWrites::total         4173453                       # Number of write requests responded to by this memory (Count)
system.mem_ctrl.dram.bwRead::caches.controllers1    794095585                       # Total read bandwidth from this memory ((Byte/Second))
system.mem_ctrl.dram.bwRead::total          794095585                       # Total read bandwidth from this memory ((Byte/Second))
system.mem_ctrl.dram.bwWrite::caches.controllers1    794095585                       # Write bandwidth from this memory ((Byte/Second))
system.mem_ctrl.dram.bwWrite::total         794095585                       # Write bandwidth from this memory ((Byte/Second))
system.mem_ctrl.dram.bwTotal::caches.controllers1   1588191170                       # Total bandwidth to/from this memory ((Byte/Second))
system.mem_ctrl.dram.bwTotal::total        1588191170                       # Total bandwidth to/from this memory ((Byte/Second))
system.mem_ctrl.dram.readBursts               4149451                       # Number of DRAM read bursts (Count)
system.mem_ctrl.dram.writeBursts              4167854                       # Number of DRAM write bursts (Count)
system.mem_ctrl.dram.perBankRdBursts::0        259007                       # Per bank write bursts (Count)
system.mem_ctrl.dram.perBankRdBursts::1        259838                       # Per bank write bursts (Count)
system.mem_ctrl.dram.perBankRdBursts::2        259730                       # Per bank write bursts (Count)
system.mem_ctrl.dram.perBankRdBursts::3        260074                       # Per bank write bursts (Count)
system.mem_ctrl.dram.perBankRdBursts::4        259129                       # Per bank write bursts (Count)
system.mem_ctrl.dram.perBankRdBursts::5        259393                       # Per bank write bursts (Count)
system.mem_ctrl.dram.perBankRdBursts::6        259371                       # Per bank write bursts (Count)
system.mem_ctrl.dram.perBankRdBursts::7        259371                       # Per bank write bursts (Count)
system.mem_ctrl.dram.perBankRdBursts::8        259285                       # Per bank write bursts (Count)
system.mem_ctrl.dram.perBankRdBursts::9        322817                       # Per bank write bursts (Count)
system.mem_ctrl.dram.perBankRdBursts::10       194533                       # Per bank write bursts (Count)
system.mem_ctrl.dram.perBankRdBursts::11       259759                       # Per bank write bursts (Count)
system.mem_ctrl.dram.perBankRdBursts::12       258846                       # Per bank write bursts (Count)
system.mem_ctrl.dram.perBankRdBursts::13       259927                       # Per bank write bursts (Count)
system.mem_ctrl.dram.perBankRdBursts::14       259437                       # Per bank write bursts (Count)
system.mem_ctrl.dram.perBankRdBursts::15       258934                       # Per bank write bursts (Count)
system.mem_ctrl.dram.perBankWrBursts::0        260507                       # Per bank write bursts (Count)
system.mem_ctrl.dram.perBankWrBursts::1        260922                       # Per bank write bursts (Count)
system.mem_ctrl.dram.perBankWrBursts::2        260467                       # Per bank write bursts (Count)
system.mem_ctrl.dram.perBankWrBursts::3        260834                       # Per bank write bursts (Count)
system.mem_ctrl.dram.perBankWrBursts::4        260400                       # Per bank write bursts (Count)
system.mem_ctrl.dram.perBankWrBursts::5        260700                       # Per bank write bursts (Count)
system.mem_ctrl.dram.perBankWrBursts::6        260526                       # Per bank write bursts (Count)
system.mem_ctrl.dram.perBankWrBursts::7        260229                       # Per bank write bursts (Count)
system.mem_ctrl.dram.perBankWrBursts::8        260892                       # Per bank write bursts (Count)
system.mem_ctrl.dram.perBankWrBursts::9        324828                       # Per bank write bursts (Count)
system.mem_ctrl.dram.perBankWrBursts::10       195421                       # Per bank write bursts (Count)
system.mem_ctrl.dram.perBankWrBursts::11       260690                       # Per bank write bursts (Count)
system.mem_ctrl.dram.perBankWrBursts::12       259890                       # Per bank write bursts (Count)
system.mem_ctrl.dram.perBankWrBursts::13       260781                       # Per bank write bursts (Count)
system.mem_ctrl.dram.perBankWrBursts::14       260857                       # Per bank write bursts (Count)
system.mem_ctrl.dram.perBankWrBursts::15       259910                       # Per bank write bursts (Count)
system.mem_ctrl.dram.totQLat              89910428750                       # Total ticks spent queuing (Tick)
system.mem_ctrl.dram.totBusLat            20747255000                       # Total ticks spent in databus transfers (Tick)
system.mem_ctrl.dram.totMemAccLat        167712635000                       # Total ticks spent from burst creation until serviced by the DRAM (Tick)
system.mem_ctrl.dram.avgQLat                 21668.03                       # Average queueing delay per DRAM burst ((Tick/Count))
system.mem_ctrl.dram.avgBusLat                5000.00                       # Average bus latency per DRAM burst ((Tick/Count))
system.mem_ctrl.dram.avgMemAccLat            40418.03                       # Average memory access latency per DRAM burst ((Tick/Count))
system.mem_ctrl.dram.readRowHits              1465993                       # Number of row buffer hits during reads (Count)
system.mem_ctrl.dram.writeRowHits             3199415                       # Number of row buffer hits during writes (Count)
system.mem_ctrl.dram.readRowHitRate             35.33                       # Row buffer hit rate for reads (Ratio)
system.mem_ctrl.dram.writeRowHitRate            76.76                       # Row buffer hit rate for writes (Ratio)
system.mem_ctrl.dram.bytesPerActivate::samples      3651897                       # Bytes accessed per row activation (Byte)
system.mem_ctrl.dram.bytesPerActivate::mean   145.760992                       # Bytes accessed per row activation (Byte)
system.mem_ctrl.dram.bytesPerActivate::gmean   120.828258                       # Bytes accessed per row activation (Byte)
system.mem_ctrl.dram.bytesPerActivate::stdev    97.329526                       # Bytes accessed per row activation (Byte)
system.mem_ctrl.dram.bytesPerActivate::0-127      1457023     39.90%     39.90% # Bytes accessed per row activation (Byte)
system.mem_ctrl.dram.bytesPerActivate::128-255      1557742     42.66%     82.55% # Bytes accessed per row activation (Byte)
system.mem_ctrl.dram.bytesPerActivate::256-383       488824     13.39%     95.94% # Bytes accessed per row activation (Byte)
system.mem_ctrl.dram.bytesPerActivate::384-511       114399      3.13%     99.07% # Bytes accessed per row activation (Byte)
system.mem_ctrl.dram.bytesPerActivate::512-639        25788      0.71%     99.78% # Bytes accessed per row activation (Byte)
system.mem_ctrl.dram.bytesPerActivate::640-767         5630      0.15%     99.93% # Bytes accessed per row activation (Byte)
system.mem_ctrl.dram.bytesPerActivate::768-895         1873      0.05%     99.98% # Bytes accessed per row activation (Byte)
system.mem_ctrl.dram.bytesPerActivate::896-1023          387      0.01%     99.99% # Bytes accessed per row activation (Byte)
system.mem_ctrl.dram.bytesPerActivate::1024-1151          231      0.01%    100.00% # Bytes accessed per row activation (Byte)
system.mem_ctrl.dram.bytesPerActivate::total      3651897                       # Bytes accessed per row activation (Byte)
system.mem_ctrl.dram.bytesRead              265564864                       # Total number of bytes read from DRAM (Byte)
system.mem_ctrl.dram.bytesWritten           266742656                       # Total number of bytes written to DRAM (Byte)
system.mem_ctrl.dram.avgRdBW               789.528652                       # Average DRAM read bandwidth in MiBytes/s ((Byte/Second))
system.mem_ctrl.dram.avgWrBW               793.030246                       # Average DRAM write bandwidth in MiBytes/s ((Byte/Second))
system.mem_ctrl.dram.peakBW                  12800.00                       # Theoretical peak bandwidth in MiByte/s ((Byte/Second))
system.mem_ctrl.dram.busUtil                    12.36                       # Data bus utilization in percentage (Ratio)
system.mem_ctrl.dram.busUtilRead                 6.17                       # Data bus utilization in percentage for reads (Ratio)
system.mem_ctrl.dram.busUtilWrite                6.20                       # Data bus utilization in percentage for writes (Ratio)
system.mem_ctrl.dram.pageHitRate                56.09                       # Row buffer hit rate, read and write combined (Ratio)
system.mem_ctrl.dram.power_state.pwrStateResidencyTicks::UNDEFINED 344818635000                       # Cumulative time (in ticks) in various power states (Tick)
system.mem_ctrl.dram.rank0.actEnergy      12882287880                       # Energy for activate commands per rank (pJ) (Joule)
system.mem_ctrl.dram.rank0.preEnergy       6847075620                       # Energy for precharge commands per rank (pJ) (Joule)
system.mem_ctrl.dram.rank0.readEnergy     14822204460                       # Energy for read commands per rank (pJ) (Joule)
system.mem_ctrl.dram.rank0.writeEnergy    10881622440                       # Energy for write commands per rank (pJ) (Joule)
system.mem_ctrl.dram.rank0.refreshEnergy 26551833360.000004                       # Energy for refresh commands per rank (pJ) (Joule)
system.mem_ctrl.dram.rank0.actBackEnergy 151432378230                       # Energy for active background per rank (pJ) (Joule)
system.mem_ctrl.dram.rank0.preBackEnergy   1640731680                       # Energy for precharge background per rank (pJ) (Joule)
system.mem_ctrl.dram.rank0.actPowerDownEnergy            0                       # Energy for active power-down per rank (pJ) (Joule)
system.mem_ctrl.dram.rank0.prePowerDownEnergy            0                       # Energy for precharge power-down per rank (pJ) (Joule)
system.mem_ctrl.dram.rank0.selfRefreshEnergy            0                       # Energy for self refresh per rank (pJ) (Joule)
system.mem_ctrl.dram.rank0.totalEnergy   225058133670                       # Total energy per rank (pJ) (Joule)
system.mem_ctrl.dram.rank0.averagePower    669.101485                       # Core power per rank (mW) (Watt)
system.mem_ctrl.dram.rank0.totalIdleTime            0                       # Total Idle time Per DRAM Rank (Tick)
system.mem_ctrl.dram.rank0.pwrStateTime::IDLE   3029072750                       # Time in different power states (Tick)
system.mem_ctrl.dram.rank0.pwrStateTime::REF  11231740000                       # Time in different power states (Tick)
system.mem_ctrl.dram.rank0.pwrStateTime::SREF            0                       # Time in different power states (Tick)
system.mem_ctrl.dram.rank0.pwrStateTime::PRE_PDN            0                       # Time in different power states (Tick)
system.mem_ctrl.dram.rank0.pwrStateTime::ACT 322100474750                       # Time in different power states (Tick)
system.mem_ctrl.dram.rank0.pwrStateTime::ACT_PDN            0                       # Time in different power states (Tick)
system.mem_ctrl.dram.rank1.actEnergy      13192677960                       # Energy for activate commands per rank (pJ) (Joule)
system.mem_ctrl.dram.rank1.preEnergy       7012051860                       # Energy for precharge commands per rank (pJ) (Joule)
system.mem_ctrl.dram.rank1.readEnergy     14805211260                       # Energy for read commands per rank (pJ) (Joule)
system.mem_ctrl.dram.rank1.writeEnergy    10874826000                       # Energy for write commands per rank (pJ) (Joule)
system.mem_ctrl.dram.rank1.refreshEnergy 26551833360.000004                       # Energy for refresh commands per rank (pJ) (Joule)
system.mem_ctrl.dram.rank1.actBackEnergy 151492854660                       # Energy for active background per rank (pJ) (Joule)
system.mem_ctrl.dram.rank1.preBackEnergy   1589804160                       # Energy for precharge background per rank (pJ) (Joule)
system.mem_ctrl.dram.rank1.actPowerDownEnergy            0                       # Energy for active power-down per rank (pJ) (Joule)
system.mem_ctrl.dram.rank1.prePowerDownEnergy            0                       # Energy for precharge power-down per rank (pJ) (Joule)
system.mem_ctrl.dram.rank1.selfRefreshEnergy            0                       # Energy for self refresh per rank (pJ) (Joule)
system.mem_ctrl.dram.rank1.totalEnergy   225519259260                       # Total energy per rank (pJ) (Joule)
system.mem_ctrl.dram.rank1.averagePower    670.472419                       # Core power per rank (mW) (Watt)
system.mem_ctrl.dram.rank1.totalIdleTime            0                       # Total Idle time Per DRAM Rank (Tick)
system.mem_ctrl.dram.rank1.pwrStateTime::IDLE   2896871250                       # Time in different power states (Tick)
system.mem_ctrl.dram.rank1.pwrStateTime::REF  11231740000                       # Time in different power states (Tick)
system.mem_ctrl.dram.rank1.pwrStateTime::SREF            0                       # Time in different power states (Tick)
system.mem_ctrl.dram.rank1.pwrStateTime::PRE_PDN            0                       # Time in different power states (Tick)
system.mem_ctrl.dram.rank1.pwrStateTime::ACT 322232676250                       # Time in different power states (Tick)
system.mem_ctrl.dram.rank1.pwrStateTime::ACT_PDN            0                       # Time in different power states (Tick)
system.mem_ctrl.power_state.pwrStateResidencyTicks::UNDEFINED 344818635000                       # Cumulative time (in ticks) in various power states (Tick)
system.workload.inst.arm                            0                       # number of arm instructions executed (Count)
system.workload.inst.quiesce                        0                       # number of quiesce instructions executed (Count)

---------- End Simulation Statistics   ----------
