
---------- Begin Simulation Statistics ----------
simSeconds                                   0.075362                       # Number of seconds simulated (Second)
simTicks                                  75362467000                       # Number of ticks simulated (Tick)
finalTick                                 75362467000                       # Number of ticks from beginning of simulation (restored from checkpoints and never reset) (Tick)
simFreq                                  1000000000000                       # The number of ticks per simulated second ((Tick/Second))
hostSeconds                                    202.78                       # Real time elapsed on the host (Second)
hostTickRate                                371644279                       # The number of ticks simulated per host second (ticks/s) ((Tick/Second))
hostMemory                                    9639680                       # Number of bytes of host memory used (Byte)
simInsts                                     46698355                       # Number of instructions simulated (Count)
simOps                                       83201955                       # Number of ops (including micro ops) simulated (Count)
hostInstRate                                   230289                       # Simulator instruction rate (inst/s) ((Count/Second))
hostOpRate                                     410304                       # Simulator op (including micro ops) rate (op/s) ((Count/Second))
system.caches.delayHistogram::bucket_size            4                       # delay histogram for all message (Unspecified)
system.caches.delayHistogram::max_bucket           39                       # delay histogram for all message (Unspecified)
system.caches.delayHistogram::samples         1777084                       # delay histogram for all message (Unspecified)
system.caches.delayHistogram::mean           0.172824                       # delay histogram for all message (Unspecified)
system.caches.delayHistogram::stdev          1.002029                       # delay histogram for all message (Unspecified)
system.caches.delayHistogram             |     1724204     97.02%     97.02% |       51623      2.90%     99.93% |         921      0.05%     99.98% |          24      0.00%     99.98% |         275      0.02%    100.00% |          10      0.00%    100.00% |          24      0.00%    100.00% |           3      0.00%    100.00% |           0      0.00%    100.00% |           0      0.00%    100.00% # delay histogram for all message (Unspecified)
system.caches.delayHistogram::total           1777084                       # delay histogram for all message (Unspecified)
system.caches.m_outstandReqHistSeqr::bucket_size            2                       (Unspecified)
system.caches.m_outstandReqHistSeqr::max_bucket           19                       (Unspecified)
system.caches.m_outstandReqHistSeqr::samples     27895440                       (Unspecified)
system.caches.m_outstandReqHistSeqr::mean     1.644550                       (Unspecified)
system.caches.m_outstandReqHistSeqr::gmean     1.453816                       (Unspecified)
system.caches.m_outstandReqHistSeqr::stdev     0.958446                       (Unspecified)
system.caches.m_outstandReqHistSeqr      |    15883985     56.94%     56.94% |    10695933     38.34%     95.28% |     1189659      4.26%     99.55% |       79005      0.28%     99.83% |       22511      0.08%     99.91% |       14037      0.05%     99.96% |        6602      0.02%     99.99% |        2721      0.01%    100.00% |         987      0.00%    100.00% |           0      0.00%    100.00% (Unspecified)
system.caches.m_outstandReqHistSeqr::total     27895440                       (Unspecified)
system.caches.m_latencyHistSeqr::bucket_size          128                       (Unspecified)
system.caches.m_latencyHistSeqr::max_bucket         1279                       (Unspecified)
system.caches.m_latencyHistSeqr::samples     28191751                       (Unspecified)
system.caches.m_latencyHistSeqr::mean        2.946692                       (Unspecified)
system.caches.m_latencyHistSeqr::gmean       1.162926                       (Unspecified)
system.caches.m_latencyHistSeqr::stdev      12.996226                       (Unspecified)
system.caches.m_latencyHistSeqr          |    28123250     99.76%     99.76% |       60199      0.21%     99.97% |        7153      0.03%    100.00% |         955      0.00%    100.00% |         192      0.00%    100.00% |           2      0.00%    100.00% |           0      0.00%    100.00% |           0      0.00%    100.00% |           0      0.00%    100.00% |           0      0.00%    100.00% (Unspecified)
system.caches.m_latencyHistSeqr::total       28191751                       (Unspecified)
system.caches.m_hitLatencyHistSeqr::bucket_size           64                       (Unspecified)
system.caches.m_hitLatencyHistSeqr::max_bucket          639                       (Unspecified)
system.caches.m_hitLatencyHistSeqr::samples     27303193                       (Unspecified)
system.caches.m_hitLatencyHistSeqr::mean     1.256400                       (Unspecified)
system.caches.m_hitLatencyHistSeqr::gmean     1.032457                       (Unspecified)
system.caches.m_hitLatencyHistSeqr::stdev     4.019172                       (Unspecified)
system.caches.m_hitLatencyHistSeqr       |    27281981     99.92%     99.92% |       15407      0.06%     99.98% |        4346      0.02%     99.99% |         865      0.00%    100.00% |         388      0.00%    100.00% |         120      0.00%    100.00% |          45      0.00%    100.00% |          29      0.00%    100.00% |          12      0.00%    100.00% |           0      0.00%    100.00% (Unspecified)
system.caches.m_hitLatencyHistSeqr::total     27303193                       (Unspecified)
system.caches.m_missLatencyHistSeqr::bucket_size          128                       (Unspecified)
system.caches.m_missLatencyHistSeqr::max_bucket         1279                       (Unspecified)
system.caches.m_missLatencyHistSeqr::samples       888558                       (Unspecified)
system.caches.m_missLatencyHistSeqr::mean    54.885199                       (Unspecified)
system.caches.m_missLatencyHistSeqr::gmean    45.034728                       (Unspecified)
system.caches.m_missLatencyHistSeqr::stdev    45.574965                       (Unspecified)
system.caches.m_missLatencyHistSeqr      |      825862     92.94%     92.94% |       54988      6.19%     99.13% |        6645      0.75%     99.88% |         881      0.10%     99.98% |         180      0.02%    100.00% |           2      0.00%    100.00% |           0      0.00%    100.00% |           0      0.00%    100.00% |           0      0.00%    100.00% |           0      0.00%    100.00% (Unspecified)
system.caches.m_missLatencyHistSeqr::total       888558                       (Unspecified)
system.caches.delayVCHist.vnet_1::bucket_size            1                       # delay histogram for vnet_1 (Unspecified)
system.caches.delayVCHist.vnet_1::max_bucket            9                       # delay histogram for vnet_1 (Unspecified)
system.caches.delayVCHist.vnet_1::samples       888558                       # delay histogram for vnet_1 (Unspecified)
system.caches.delayVCHist.vnet_1::mean       0.007061                       # delay histogram for vnet_1 (Unspecified)
system.caches.delayVCHist.vnet_1::stdev      0.184844                       # delay histogram for vnet_1 (Unspecified)
system.caches.delayVCHist.vnet_1         |      886861     99.81%     99.81% |           0      0.00%     99.81% |         881      0.10%     99.91% |           0      0.00%     99.91% |         360      0.04%     99.95% |           0      0.00%     99.95% |         288      0.03%     99.98% |           0      0.00%     99.98% |         168      0.02%    100.00% |           0      0.00%    100.00% # delay histogram for vnet_1 (Unspecified)
system.caches.delayVCHist.vnet_1::total        888558                       # delay histogram for vnet_1 (Unspecified)
system.caches.delayVCHist.vnet_2::bucket_size            4                       # delay histogram for vnet_2 (Unspecified)
system.caches.delayVCHist.vnet_2::max_bucket           39                       # delay histogram for vnet_2 (Unspecified)
system.caches.delayVCHist.vnet_2::samples       888526                       # delay histogram for vnet_2 (Unspecified)
system.caches.delayVCHist.vnet_2::mean       0.338592                       # delay histogram for vnet_2 (Unspecified)
system.caches.delayVCHist.vnet_2::stdev      1.385293                       # delay histogram for vnet_2 (Unspecified)
system.caches.delayVCHist.vnet_2         |      836462     94.14%     94.14% |       50975      5.74%     99.88% |         753      0.08%     99.96% |          24      0.00%     99.96% |         275      0.03%    100.00% |          10      0.00%    100.00% |          24      0.00%    100.00% |           3      0.00%    100.00% |           0      0.00%    100.00% |           0      0.00%    100.00% # delay histogram for vnet_2 (Unspecified)
system.caches.delayVCHist.vnet_2::total        888526                       # delay histogram for vnet_2 (Unspecified)
system.caches.L1Cache_Controller.Load         8879784      0.00%      0.00% (Unspecified)
system.caches.L1Cache_Controller.Ifetch       8350398      0.00%      0.00% (Unspecified)
system.caches.L1Cache_Controller.Store       10961570      0.00%      0.00% (Unspecified)
system.caches.L1Cache_Controller.Data          888558      0.00%      0.00% (Unspecified)
system.caches.L1Cache_Controller.Replacement       888527      0.00%      0.00% (Unspecified)
system.caches.L1Cache_Controller.Writeback_Ack       888526      0.00%      0.00% (Unspecified)
system.caches.L1Cache_Controller.I.Load        376252      0.00%      0.00% (Unspecified)
system.caches.L1Cache_Controller.I.Ifetch       374683      0.00%      0.00% (Unspecified)
system.caches.L1Cache_Controller.I.Store       137624      0.00%      0.00% (Unspecified)
system.caches.L1Cache_Controller.M.Load       8503532      0.00%      0.00% (Unspecified)
system.caches.L1Cache_Controller.M.Ifetch      7975715      0.00%      0.00% (Unspecified)
system.caches.L1Cache_Controller.M.Store     10823946      0.00%      0.00% (Unspecified)
system.caches.L1Cache_Controller.M.Replacement       888527      0.00%      0.00% (Unspecified)
system.caches.L1Cache_Controller.MI.Writeback_Ack       888526      0.00%      0.00% (Unspecified)
system.caches.L1Cache_Controller.IS.Data       750934      0.00%      0.00% (Unspecified)
system.caches.L1Cache_Controller.IM.Data       137624      0.00%      0.00% (Unspecified)
system.caches.Directory_Controller.GETX        888558      0.00%      0.00% (Unspecified)
system.caches.Directory_Controller.PUTX        888526      0.00%      0.00% (Unspecified)
system.caches.Directory_Controller.Memory_Data       888558      0.00%      0.00% (Unspecified)
system.caches.Directory_Controller.Memory_Ack       888526      0.00%      0.00% (Unspecified)
system.caches.Directory_Controller.I.GETX       888558      0.00%      0.00% (Unspecified)
system.caches.Directory_Controller.M.PUTX       888526      0.00%      0.00% (Unspecified)
system.caches.Directory_Controller.IM.Memory_Data       888558      0.00%      0.00% (Unspecified)
system.caches.Directory_Controller.MI.Memory_Ack       888526      0.00%      0.00% (Unspecified)
system.caches.MachineType.Directory.miss_mach_latency_hist_seqr::bucket_size          128                       (Unspecified)
system.caches.MachineType.Directory.miss_mach_latency_hist_seqr::max_bucket         1279                       (Unspecified)
system.caches.MachineType.Directory.miss_mach_latency_hist_seqr::samples       888558                       (Unspecified)
system.caches.MachineType.Directory.miss_mach_latency_hist_seqr::mean    54.885199                       (Unspecified)
system.caches.MachineType.Directory.miss_mach_latency_hist_seqr::gmean    45.034728                       (Unspecified)
system.caches.MachineType.Directory.miss_mach_latency_hist_seqr::stdev    45.574965                       (Unspecified)
system.caches.MachineType.Directory.miss_mach_latency_hist_seqr |      825862     92.94%     92.94% |       54988      6.19%     99.13% |        6645      0.75%     99.88% |         881      0.10%     99.98% |         180      0.02%    100.00% |           2      0.00%    100.00% |           0      0.00%    100.00% |           0      0.00%    100.00% |           0      0.00%    100.00% |           0      0.00%    100.00% (Unspecified)
system.caches.MachineType.Directory.miss_mach_latency_hist_seqr::total       888558                       (Unspecified)
system.caches.MachineType.Directory.miss_latency_hist_seqr.issue_to_initial_request::bucket_size            1                       (Unspecified)
system.caches.MachineType.Directory.miss_latency_hist_seqr.issue_to_initial_request::max_bucket            9                       (Unspecified)
system.caches.MachineType.Directory.miss_latency_hist_seqr.issue_to_initial_request::samples            1                       (Unspecified)
system.caches.MachineType.Directory.miss_latency_hist_seqr.issue_to_initial_request::stdev          nan                       (Unspecified)
system.caches.MachineType.Directory.miss_latency_hist_seqr.issue_to_initial_request |           1    100.00%    100.00% |           0      0.00%    100.00% |           0      0.00%    100.00% |           0      0.00%    100.00% |           0      0.00%    100.00% |           0      0.00%    100.00% |           0      0.00%    100.00% |           0      0.00%    100.00% |           0      0.00%    100.00% |           0      0.00%    100.00% (Unspecified)
system.caches.MachineType.Directory.miss_latency_hist_seqr.issue_to_initial_request::total            1                       (Unspecified)
system.caches.MachineType.Directory.miss_latency_hist_seqr.initial_to_forward::bucket_size            1                       (Unspecified)
system.caches.MachineType.Directory.miss_latency_hist_seqr.initial_to_forward::max_bucket            9                       (Unspecified)
system.caches.MachineType.Directory.miss_latency_hist_seqr.initial_to_forward::samples            1                       (Unspecified)
system.caches.MachineType.Directory.miss_latency_hist_seqr.initial_to_forward::stdev          nan                       (Unspecified)
system.caches.MachineType.Directory.miss_latency_hist_seqr.initial_to_forward |           1    100.00%    100.00% |           0      0.00%    100.00% |           0      0.00%    100.00% |           0      0.00%    100.00% |           0      0.00%    100.00% |           0      0.00%    100.00% |           0      0.00%    100.00% |           0      0.00%    100.00% |           0      0.00%    100.00% |           0      0.00%    100.00% (Unspecified)
system.caches.MachineType.Directory.miss_latency_hist_seqr.initial_to_forward::total            1                       (Unspecified)
system.caches.MachineType.Directory.miss_latency_hist_seqr.forward_to_first_response::bucket_size            1                       (Unspecified)
system.caches.MachineType.Directory.miss_latency_hist_seqr.forward_to_first_response::max_bucket            9                       (Unspecified)
system.caches.MachineType.Directory.miss_latency_hist_seqr.forward_to_first_response::samples            1                       (Unspecified)
system.caches.MachineType.Directory.miss_latency_hist_seqr.forward_to_first_response::stdev          nan                       (Unspecified)
system.caches.MachineType.Directory.miss_latency_hist_seqr.forward_to_first_response |           1    100.00%    100.00% |           0      0.00%    100.00% |           0      0.00%    100.00% |           0      0.00%    100.00% |           0      0.00%    100.00% |           0      0.00%    100.00% |           0      0.00%    100.00% |           0      0.00%    100.00% |           0      0.00%    100.00% |           0      0.00%    100.00% (Unspecified)
system.caches.MachineType.Directory.miss_latency_hist_seqr.forward_to_first_response::total            1                       (Unspecified)
system.caches.MachineType.Directory.miss_latency_hist_seqr.first_response_to_completion::bucket_size            8                       (Unspecified)
system.caches.MachineType.Directory.miss_latency_hist_seqr.first_response_to_completion::max_bucket           79                       (Unspecified)
system.caches.MachineType.Directory.miss_latency_hist_seqr.first_response_to_completion::samples            1                       (Unspecified)
system.caches.MachineType.Directory.miss_latency_hist_seqr.first_response_to_completion::mean           73                       (Unspecified)
system.caches.MachineType.Directory.miss_latency_hist_seqr.first_response_to_completion::gmean    73.000000                       (Unspecified)
system.caches.MachineType.Directory.miss_latency_hist_seqr.first_response_to_completion::stdev          nan                       (Unspecified)
system.caches.MachineType.Directory.miss_latency_hist_seqr.first_response_to_completion |           0      0.00%      0.00% |           0      0.00%      0.00% |           0      0.00%      0.00% |           0      0.00%      0.00% |           0      0.00%      0.00% |           0      0.00%      0.00% |           0      0.00%      0.00% |           0      0.00%      0.00% |           0      0.00%      0.00% |           1    100.00%    100.00% (Unspecified)
system.caches.MachineType.Directory.miss_latency_hist_seqr.first_response_to_completion::total            1                       (Unspecified)
system.caches.MachineType.Directory.incomplete_times_seqr       888557                       (Unspecified)
system.caches.RequestType.LD.latency_hist_seqr::bucket_size          128                       (Unspecified)
system.caches.RequestType.LD.latency_hist_seqr::max_bucket         1279                       (Unspecified)
system.caches.RequestType.LD.latency_hist_seqr::samples      8879784                       (Unspecified)
system.caches.RequestType.LD.latency_hist_seqr::mean     4.154740                       (Unspecified)
system.caches.RequestType.LD.latency_hist_seqr::gmean     1.225900                       (Unspecified)
system.caches.RequestType.LD.latency_hist_seqr::stdev    17.685349                       (Unspecified)
system.caches.RequestType.LD.latency_hist_seqr |     8837616     99.53%     99.53% |       36740      0.41%     99.94% |        4679      0.05%     99.99% |         609      0.01%    100.00% |         138      0.00%    100.00% |           2      0.00%    100.00% |           0      0.00%    100.00% |           0      0.00%    100.00% |           0      0.00%    100.00% |           0      0.00%    100.00% (Unspecified)
system.caches.RequestType.LD.latency_hist_seqr::total      8879784                       (Unspecified)
system.caches.RequestType.LD.hit_latency_hist_seqr::bucket_size           64                       (Unspecified)
system.caches.RequestType.LD.hit_latency_hist_seqr::max_bucket          639                       (Unspecified)
system.caches.RequestType.LD.hit_latency_hist_seqr::samples      8503532                       (Unspecified)
system.caches.RequestType.LD.hit_latency_hist_seqr::mean     1.372767                       (Unspecified)
system.caches.RequestType.LD.hit_latency_hist_seqr::gmean     1.035525                       (Unspecified)
system.caches.RequestType.LD.hit_latency_hist_seqr::stdev     5.052918                       (Unspecified)
system.caches.RequestType.LD.hit_latency_hist_seqr |     8492385     99.87%     99.87% |        8328      0.10%     99.97% |        2167      0.03%     99.99% |         353      0.00%    100.00% |         194      0.00%    100.00% |          66      0.00%    100.00% |          19      0.00%    100.00% |          13      0.00%    100.00% |           7      0.00%    100.00% |           0      0.00%    100.00% (Unspecified)
system.caches.RequestType.LD.hit_latency_hist_seqr::total      8503532                       (Unspecified)
system.caches.RequestType.LD.miss_latency_hist_seqr::bucket_size          128                       (Unspecified)
system.caches.RequestType.LD.miss_latency_hist_seqr::max_bucket         1279                       (Unspecified)
system.caches.RequestType.LD.miss_latency_hist_seqr::samples       376252                       (Unspecified)
system.caches.RequestType.LD.miss_latency_hist_seqr::mean    67.029087                       (Unspecified)
system.caches.RequestType.LD.miss_latency_hist_seqr::gmean    55.584489                       (Unspecified)
system.caches.RequestType.LD.miss_latency_hist_seqr::stdev    51.734659                       (Unspecified)
system.caches.RequestType.LD.miss_latency_hist_seqr |      336903     89.54%     89.54% |       34220      9.09%     98.64% |        4419      1.17%     99.81% |         577      0.15%     99.96% |         131      0.03%    100.00% |           2      0.00%    100.00% |           0      0.00%    100.00% |           0      0.00%    100.00% |           0      0.00%    100.00% |           0      0.00%    100.00% (Unspecified)
system.caches.RequestType.LD.miss_latency_hist_seqr::total       376252                       (Unspecified)
system.caches.RequestType.ST.latency_hist_seqr::bucket_size           64                       (Unspecified)
system.caches.RequestType.ST.latency_hist_seqr::max_bucket          639                       (Unspecified)
system.caches.RequestType.ST.latency_hist_seqr::samples     10485015                       (Unspecified)
system.caches.RequestType.ST.latency_hist_seqr::mean     1.832584                       (Unspecified)
system.caches.RequestType.ST.latency_hist_seqr::gmean     1.085544                       (Unspecified)
system.caches.RequestType.ST.latency_hist_seqr::stdev     7.544268                       (Unspecified)
system.caches.RequestType.ST.latency_hist_seqr |    10449294     99.66%     99.66% |       28941      0.28%     99.94% |        4839      0.05%     99.98% |        1209      0.01%     99.99% |         450      0.00%    100.00% |         189      0.00%    100.00% |          62      0.00%    100.00% |          23      0.00%    100.00% |           7      0.00%    100.00% |           1      0.00%    100.00% (Unspecified)
system.caches.RequestType.ST.latency_hist_seqr::total     10485015                       (Unspecified)
system.caches.RequestType.ST.hit_latency_hist_seqr::bucket_size           64                       (Unspecified)
system.caches.RequestType.ST.hit_latency_hist_seqr::max_bucket          639                       (Unspecified)
system.caches.RequestType.ST.hit_latency_hist_seqr::samples     10350142                       (Unspecified)
system.caches.RequestType.ST.hit_latency_hist_seqr::mean     1.256245                       (Unspecified)
system.caches.RequestType.ST.hit_latency_hist_seqr::gmean     1.036076                       (Unspecified)
system.caches.RequestType.ST.hit_latency_hist_seqr::stdev     3.915918                       (Unspecified)
system.caches.RequestType.ST.hit_latency_hist_seqr |    10343915     99.94%     99.94% |        4099      0.04%     99.98% |        1519      0.01%     99.99% |         395      0.00%    100.00% |         140      0.00%    100.00% |          39      0.00%    100.00% |          19      0.00%    100.00% |          11      0.00%    100.00% |           5      0.00%    100.00% |           0      0.00%    100.00% (Unspecified)
system.caches.RequestType.ST.hit_latency_hist_seqr::total     10350142                       (Unspecified)
system.caches.RequestType.ST.miss_latency_hist_seqr::bucket_size           64                       (Unspecified)
system.caches.RequestType.ST.miss_latency_hist_seqr::max_bucket          639                       (Unspecified)
system.caches.RequestType.ST.miss_latency_hist_seqr::samples       134873                       (Unspecified)
system.caches.RequestType.ST.miss_latency_hist_seqr::mean    46.060746                       (Unspecified)
system.caches.RequestType.ST.miss_latency_hist_seqr::gmean    38.913599                       (Unspecified)
system.caches.RequestType.ST.miss_latency_hist_seqr::stdev    35.584690                       (Unspecified)
system.caches.RequestType.ST.miss_latency_hist_seqr |      105379     78.13%     78.13% |       24842     18.42%     96.55% |        3320      2.46%     99.01% |         814      0.60%     99.62% |         310      0.23%     99.85% |         150      0.11%     99.96% |          43      0.03%     99.99% |          12      0.01%    100.00% |           2      0.00%    100.00% |           1      0.00%    100.00% (Unspecified)
system.caches.RequestType.ST.miss_latency_hist_seqr::total       134873                       (Unspecified)
system.caches.RequestType.IFETCH.latency_hist_seqr::bucket_size           64                       (Unspecified)
system.caches.RequestType.IFETCH.latency_hist_seqr::max_bucket          639                       (Unspecified)
system.caches.RequestType.IFETCH.latency_hist_seqr::samples      8350397                       (Unspecified)
system.caches.RequestType.IFETCH.latency_hist_seqr::mean     3.130631                       (Unspecified)
system.caches.RequestType.IFETCH.latency_hist_seqr::gmean     1.194792                       (Unspecified)
system.caches.RequestType.IFETCH.latency_hist_seqr::stdev    12.658201                       (Unspecified)
system.caches.RequestType.IFETCH.latency_hist_seqr |     8298206     99.37%     99.37% |       32951      0.39%     99.77% |       13858      0.17%     99.94% |        3271      0.04%     99.97% |        1171      0.01%     99.99% |         637      0.01%    100.00% |         163      0.00%    100.00% |          97      0.00%    100.00% |          33      0.00%    100.00% |          10      0.00%    100.00% (Unspecified)
system.caches.RequestType.IFETCH.latency_hist_seqr::total      8350397                       (Unspecified)
system.caches.RequestType.IFETCH.hit_latency_hist_seqr::bucket_size           64                       (Unspecified)
system.caches.RequestType.IFETCH.hit_latency_hist_seqr::max_bucket          639                       (Unspecified)
system.caches.RequestType.IFETCH.hit_latency_hist_seqr::samples      7975715                       (Unspecified)
system.caches.RequestType.IFETCH.hit_latency_hist_seqr::mean     1.128765                       (Unspecified)
system.caches.RequestType.IFETCH.hit_latency_hist_seqr::gmean     1.015126                       (Unspecified)
system.caches.RequestType.IFETCH.hit_latency_hist_seqr::stdev     2.821294                       (Unspecified)
system.caches.RequestType.IFETCH.hit_latency_hist_seqr |     7971969     99.95%     99.95% |        2902      0.04%     99.99% |         650      0.01%    100.00% |         113      0.00%    100.00% |          54      0.00%    100.00% |          15      0.00%    100.00% |           7      0.00%    100.00% |           5      0.00%    100.00% |           0      0.00%    100.00% |           0      0.00%    100.00% (Unspecified)
system.caches.RequestType.IFETCH.hit_latency_hist_seqr::total      7975715                       (Unspecified)
system.caches.RequestType.IFETCH.miss_latency_hist_seqr::bucket_size           64                       (Unspecified)
system.caches.RequestType.IFETCH.miss_latency_hist_seqr::max_bucket          639                       (Unspecified)
system.caches.RequestType.IFETCH.miss_latency_hist_seqr::samples       374682                       (Unspecified)
system.caches.RequestType.IFETCH.miss_latency_hist_seqr::mean    45.743599                       (Unspecified)
system.caches.RequestType.IFETCH.miss_latency_hist_seqr::gmean    38.352914                       (Unspecified)
system.caches.RequestType.IFETCH.miss_latency_hist_seqr::stdev    38.734801                       (Unspecified)
system.caches.RequestType.IFETCH.miss_latency_hist_seqr |      326237     87.07%     87.07% |       30049      8.02%     95.09% |       13208      3.53%     98.62% |        3158      0.84%     99.46% |        1117      0.30%     99.76% |         622      0.17%     99.92% |         156      0.04%     99.96% |          92      0.02%     99.99% |          33      0.01%    100.00% |          10      0.00%    100.00% (Unspecified)
system.caches.RequestType.IFETCH.miss_latency_hist_seqr::total       374682                       (Unspecified)
system.caches.RequestType.RMW_Read.latency_hist_seqr::bucket_size           64                       (Unspecified)
system.caches.RequestType.RMW_Read.latency_hist_seqr::max_bucket          639                       (Unspecified)
system.caches.RequestType.RMW_Read.latency_hist_seqr::samples       476555                       (Unspecified)
system.caches.RequestType.RMW_Read.latency_hist_seqr::mean     1.725988                       (Unspecified)
system.caches.RequestType.RMW_Read.latency_hist_seqr::gmean     1.233176                       (Unspecified)
system.caches.RequestType.RMW_Read.latency_hist_seqr::stdev     6.883587                       (Unspecified)
system.caches.RequestType.RMW_Read.latency_hist_seqr |      475098     99.69%     99.69% |        1144      0.24%     99.93% |         225      0.05%     99.98% |          57      0.01%     99.99% |          17      0.00%    100.00% |          10      0.00%    100.00% |           1      0.00%    100.00% |           0      0.00%    100.00% |           3      0.00%    100.00% |           0      0.00%    100.00% (Unspecified)
system.caches.RequestType.RMW_Read.latency_hist_seqr::total       476555                       (Unspecified)
system.caches.RequestType.RMW_Read.hit_latency_hist_seqr::bucket_size           32                       (Unspecified)
system.caches.RequestType.RMW_Read.hit_latency_hist_seqr::max_bucket          319                       (Unspecified)
system.caches.RequestType.RMW_Read.hit_latency_hist_seqr::samples       473804                       (Unspecified)
system.caches.RequestType.RMW_Read.hit_latency_hist_seqr::mean     1.319801                       (Unspecified)
system.caches.RequestType.RMW_Read.hit_latency_hist_seqr::gmean     1.205928                       (Unspecified)
system.caches.RequestType.RMW_Read.hit_latency_hist_seqr::stdev     1.774611                       (Unspecified)
system.caches.RequestType.RMW_Read.hit_latency_hist_seqr |      473551     99.95%     99.95% |         161      0.03%     99.98% |          60      0.01%     99.99% |          18      0.00%    100.00% |           8      0.00%    100.00% |           2      0.00%    100.00% |           3      0.00%    100.00% |           1      0.00%    100.00% |           0      0.00%    100.00% |           0      0.00%    100.00% (Unspecified)
system.caches.RequestType.RMW_Read.hit_latency_hist_seqr::total       473804                       (Unspecified)
system.caches.RequestType.RMW_Read.miss_latency_hist_seqr::bucket_size           64                       (Unspecified)
system.caches.RequestType.RMW_Read.miss_latency_hist_seqr::max_bucket          639                       (Unspecified)
system.caches.RequestType.RMW_Read.miss_latency_hist_seqr::samples         2751                       (Unspecified)
system.caches.RequestType.RMW_Read.miss_latency_hist_seqr::mean    71.683388                       (Unspecified)
system.caches.RequestType.RMW_Read.miss_latency_hist_seqr::gmean    57.851404                       (Unspecified)
system.caches.RequestType.RMW_Read.miss_latency_hist_seqr::stdev    52.387144                       (Unspecified)
system.caches.RequestType.RMW_Read.miss_latency_hist_seqr |        1386     50.38%     50.38% |        1066     38.75%     89.13% |         215      7.82%     96.95% |          53      1.93%     98.87% |          17      0.62%     99.49% |          10      0.36%     99.85% |           1      0.04%     99.89% |           0      0.00%     99.89% |           3      0.11%    100.00% |           0      0.00%    100.00% (Unspecified)
system.caches.RequestType.RMW_Read.miss_latency_hist_seqr::total         2751                       (Unspecified)
system.caches.RequestTypeMachineType.LD.Directory.miss_type_mach_latency_hist_seqr::bucket_size          128                       (Unspecified)
system.caches.RequestTypeMachineType.LD.Directory.miss_type_mach_latency_hist_seqr::max_bucket         1279                       (Unspecified)
system.caches.RequestTypeMachineType.LD.Directory.miss_type_mach_latency_hist_seqr::samples       376252                       (Unspecified)
system.caches.RequestTypeMachineType.LD.Directory.miss_type_mach_latency_hist_seqr::mean    67.029087                       (Unspecified)
system.caches.RequestTypeMachineType.LD.Directory.miss_type_mach_latency_hist_seqr::gmean    55.584489                       (Unspecified)
system.caches.RequestTypeMachineType.LD.Directory.miss_type_mach_latency_hist_seqr::stdev    51.734659                       (Unspecified)
system.caches.RequestTypeMachineType.LD.Directory.miss_type_mach_latency_hist_seqr |      336903     89.54%     89.54% |       34220      9.09%     98.64% |        4419      1.17%     99.81% |         577      0.15%     99.96% |         131      0.03%    100.00% |           2      0.00%    100.00% |           0      0.00%    100.00% |           0      0.00%    100.00% |           0      0.00%    100.00% |           0      0.00%    100.00% (Unspecified)
system.caches.RequestTypeMachineType.LD.Directory.miss_type_mach_latency_hist_seqr::total       376252                       (Unspecified)
system.caches.RequestTypeMachineType.ST.Directory.miss_type_mach_latency_hist_seqr::bucket_size           64                       (Unspecified)
system.caches.RequestTypeMachineType.ST.Directory.miss_type_mach_latency_hist_seqr::max_bucket          639                       (Unspecified)
system.caches.RequestTypeMachineType.ST.Directory.miss_type_mach_latency_hist_seqr::samples       134873                       (Unspecified)
system.caches.RequestTypeMachineType.ST.Directory.miss_type_mach_latency_hist_seqr::mean    46.060746                       (Unspecified)
system.caches.RequestTypeMachineType.ST.Directory.miss_type_mach_latency_hist_seqr::gmean    38.913599                       (Unspecified)
system.caches.RequestTypeMachineType.ST.Directory.miss_type_mach_latency_hist_seqr::stdev    35.584690                       (Unspecified)
system.caches.RequestTypeMachineType.ST.Directory.miss_type_mach_latency_hist_seqr |      105379     78.13%     78.13% |       24842     18.42%     96.55% |        3320      2.46%     99.01% |         814      0.60%     99.62% |         310      0.23%     99.85% |         150      0.11%     99.96% |          43      0.03%     99.99% |          12      0.01%    100.00% |           2      0.00%    100.00% |           1      0.00%    100.00% (Unspecified)
system.caches.RequestTypeMachineType.ST.Directory.miss_type_mach_latency_hist_seqr::total       134873                       (Unspecified)
system.caches.RequestTypeMachineType.IFETCH.Directory.miss_type_mach_latency_hist_seqr::bucket_size           64                       (Unspecified)
system.caches.RequestTypeMachineType.IFETCH.Directory.miss_type_mach_latency_hist_seqr::max_bucket          639                       (Unspecified)
system.caches.RequestTypeMachineType.IFETCH.Directory.miss_type_mach_latency_hist_seqr::samples       374682                       (Unspecified)
system.caches.RequestTypeMachineType.IFETCH.Directory.miss_type_mach_latency_hist_seqr::mean    45.743599                       (Unspecified)
system.caches.RequestTypeMachineType.IFETCH.Directory.miss_type_mach_latency_hist_seqr::gmean    38.352914                       (Unspecified)
system.caches.RequestTypeMachineType.IFETCH.Directory.miss_type_mach_latency_hist_seqr::stdev    38.734801                       (Unspecified)
system.caches.RequestTypeMachineType.IFETCH.Directory.miss_type_mach_latency_hist_seqr |      326237     87.07%     87.07% |       30049      8.02%     95.09% |       13208      3.53%     98.62% |        3158      0.84%     99.46% |        1117      0.30%     99.76% |         622      0.17%     99.92% |         156      0.04%     99.96% |          92      0.02%     99.99% |          33      0.01%    100.00% |          10      0.00%    100.00% (Unspecified)
system.caches.RequestTypeMachineType.IFETCH.Directory.miss_type_mach_latency_hist_seqr::total       374682                       (Unspecified)
system.caches.RequestTypeMachineType.RMW_Read.Directory.miss_type_mach_latency_hist_seqr::bucket_size           64                       (Unspecified)
system.caches.RequestTypeMachineType.RMW_Read.Directory.miss_type_mach_latency_hist_seqr::max_bucket          639                       (Unspecified)
system.caches.RequestTypeMachineType.RMW_Read.Directory.miss_type_mach_latency_hist_seqr::samples         2751                       (Unspecified)
system.caches.RequestTypeMachineType.RMW_Read.Directory.miss_type_mach_latency_hist_seqr::mean    71.683388                       (Unspecified)
system.caches.RequestTypeMachineType.RMW_Read.Directory.miss_type_mach_latency_hist_seqr::gmean    57.851404                       (Unspecified)
system.caches.RequestTypeMachineType.RMW_Read.Directory.miss_type_mach_latency_hist_seqr::stdev    52.387144                       (Unspecified)
system.caches.RequestTypeMachineType.RMW_Read.Directory.miss_type_mach_latency_hist_seqr |        1386     50.38%     50.38% |        1066     38.75%     89.13% |         215      7.82%     96.95% |          53      1.93%     98.87% |          17      0.62%     99.49% |          10      0.36%     99.85% |           1      0.04%     99.89% |           0      0.00%     99.89% |           3      0.11%    100.00% |           0      0.00%    100.00% (Unspecified)
system.caches.RequestTypeMachineType.RMW_Read.Directory.miss_type_mach_latency_hist_seqr::total         2751                       (Unspecified)
system.caches.controllers0.delayHistogram::samples      1777084                       # delay_histogram (Unspecified)
system.caches.controllers0.delayHistogram::mean     0.172824                       # delay_histogram (Unspecified)
system.caches.controllers0.delayHistogram::stdev     1.002029                       # delay_histogram (Unspecified)
system.caches.controllers0.delayHistogram::0-3      1724204     97.02%     97.02% # delay_histogram (Unspecified)
system.caches.controllers0.delayHistogram::4-7        51623      2.90%     99.93% # delay_histogram (Unspecified)
system.caches.controllers0.delayHistogram::8-11          921      0.05%     99.98% # delay_histogram (Unspecified)
system.caches.controllers0.delayHistogram::12-15           24      0.00%     99.98% # delay_histogram (Unspecified)
system.caches.controllers0.delayHistogram::16-19          275      0.02%    100.00% # delay_histogram (Unspecified)
system.caches.controllers0.delayHistogram::20-23           10      0.00%    100.00% # delay_histogram (Unspecified)
system.caches.controllers0.delayHistogram::24-27           24      0.00%    100.00% # delay_histogram (Unspecified)
system.caches.controllers0.delayHistogram::28-31            3      0.00%    100.00% # delay_histogram (Unspecified)
system.caches.controllers0.delayHistogram::total      1777084                       # delay_histogram (Unspecified)
system.caches.controllers0.cacheMemory.m_demand_hits     27303193                       # Number of cache demand hits (Unspecified)
system.caches.controllers0.cacheMemory.m_demand_misses       888559                       # Number of cache demand misses (Unspecified)
system.caches.controllers0.cacheMemory.m_demand_accesses     28191752                       # Number of cache demand accesses (Unspecified)
system.caches.controllers0.forwardToCache.m_buf_msgs     0.011790                       # Average number of messages in buffer (Unspecified)
system.caches.controllers0.forwardToCache.m_stall_time  5120.522872                       # Average number of cycles messages are stalled in this MB (Unspecified)
system.caches.controllers0.mandatoryQueue.m_buf_msgs     0.572647                       # Average number of messages in buffer (Unspecified)
system.caches.controllers0.mandatoryQueue.m_stall_time  2573.897508                       # Average number of cycles messages are stalled in this MB (Unspecified)
system.caches.controllers0.power_state.pwrStateResidencyTicks::UNDEFINED  75362467000                       # Cumulative time (in ticks) in various power states (Tick)
system.caches.controllers0.requestFromCache.m_buf_msgs     0.047161                       # Average number of messages in buffer (Unspecified)
system.caches.controllers0.requestFromCache.m_stall_time  1999.999920                       # Average number of cycles messages are stalled in this MB (Unspecified)
system.caches.controllers0.responseToCache.m_buf_msgs     0.011790                       # Average number of messages in buffer (Unspecified)
system.caches.controllers0.responseToCache.m_stall_time  5002.194010                       # Average number of cycles messages are stalled in this MB (Unspecified)
system.caches.controllers1.forwardFromDir.m_buf_msgs     0.011790                       # Average number of messages in buffer (Unspecified)
system.caches.controllers1.forwardFromDir.m_stall_time   999.988522                       # Average number of cycles messages are stalled in this MB (Unspecified)
system.caches.controllers1.power_state.pwrStateResidencyTicks::UNDEFINED  75362467000                       # Cumulative time (in ticks) in various power states (Tick)
system.caches.controllers1.requestToDir.m_buf_msgs     0.023580                       # Average number of messages in buffer (Unspecified)
system.caches.controllers1.requestToDir.m_stall_time 10020.901280                       # Average number of cycles messages are stalled in this MB (Unspecified)
system.caches.controllers1.requestToMemory.m_buf_msgs     0.023581                       # Average number of messages in buffer (Unspecified)
system.caches.controllers1.requestToMemory.m_stall_time  1000.000650                       # Average number of cycles messages are stalled in this MB (Unspecified)
system.caches.controllers1.responseFromDir.m_buf_msgs     0.011790                       # Average number of messages in buffer (Unspecified)
system.caches.controllers1.responseFromDir.m_stall_time   999.999084                       # Average number of cycles messages are stalled in this MB (Unspecified)
system.caches.controllers1.responseFromMemory.m_buf_msgs     0.025123                       # Average number of messages in buffer (Unspecified)
system.caches.controllers1.responseFromMemory.m_stall_time   999.999098                       # Average number of cycles messages are stalled in this MB (Unspecified)
system.caches.network.msg_count.Control       1777116                       (Unspecified)
system.caches.network.msg_byte.Control       14216928                       (Unspecified)
system.caches.network.msg_count.Data          1777053                       (Unspecified)
system.caches.network.msg_byte.Data         127947816                       (Unspecified)
system.caches.network.msg_count.Response_Data      1777116                       (Unspecified)
system.caches.network.msg_byte.Response_Data    127952352                       (Unspecified)
system.caches.network.msg_count.Writeback_Control      1777052                       (Unspecified)
system.caches.network.msg_byte.Writeback_Control     14216416                       (Unspecified)
system.caches.network.int_link_buffers2.m_buf_msgs     0.023580                       # Average number of messages in buffer (Unspecified)
system.caches.network.int_link_buffers2.m_stall_time  8020.901678                       # Average number of cycles messages are stalled in this MB (Unspecified)
system.caches.network.int_link_buffers8.m_buf_msgs     0.011790                       # Average number of messages in buffer (Unspecified)
system.caches.network.int_link_buffers8.m_stall_time  3120.546014                       # Average number of cycles messages are stalled in this MB (Unspecified)
system.caches.network.int_link_buffers9.m_buf_msgs     0.011790                       # Average number of messages in buffer (Unspecified)
system.caches.network.int_link_buffers9.m_stall_time  3002.196027                       # Average number of cycles messages are stalled in this MB (Unspecified)
system.caches.network.power_state.pwrStateResidencyTicks::UNDEFINED  75362467000                       # Cumulative time (in ticks) in various power states (Tick)
system.caches.network.routers0.percent_links_utilized     5.895123                       (Unspecified)
system.caches.network.routers0.msg_count.Control::2       888558                       (Unspecified)
system.caches.network.routers0.msg_bytes.Control::2      7108464                       (Unspecified)
system.caches.network.routers0.msg_count.Data::2       888527                       (Unspecified)
system.caches.network.routers0.msg_bytes.Data::2     63973944                       (Unspecified)
system.caches.network.routers0.msg_count.Response_Data::4       888558                       (Unspecified)
system.caches.network.routers0.msg_bytes.Response_Data::4     63976176                       (Unspecified)
system.caches.network.routers0.msg_count.Writeback_Control::3       888526                       (Unspecified)
system.caches.network.routers0.msg_bytes.Writeback_Control::3      7108208                       (Unspecified)
system.caches.network.routers0.port_buffers3.m_buf_msgs     0.011790                       # Average number of messages in buffer (Unspecified)
system.caches.network.routers0.port_buffers3.m_stall_time  4120.534456                       # Average number of cycles messages are stalled in this MB (Unspecified)
system.caches.network.routers0.port_buffers4.m_buf_msgs     0.011790                       # Average number of messages in buffer (Unspecified)
system.caches.network.routers0.port_buffers4.m_stall_time  4002.195032                       # Average number of cycles messages are stalled in this MB (Unspecified)
system.caches.network.routers0.port_buffers7.m_buf_msgs     0.078812                       # Average number of messages in buffer (Unspecified)
system.caches.network.routers0.port_buffers7.m_stall_time  7020.901837                       # Average number of cycles messages are stalled in this MB (Unspecified)
system.caches.network.routers0.power_state.pwrStateResidencyTicks::UNDEFINED  75362467000                       # Cumulative time (in ticks) in various power states (Tick)
system.caches.network.routers0.throttle00.link_utilization     5.895208                       (Unspecified)
system.caches.network.routers0.throttle00.msg_count.Response_Data::4       888558                       (Unspecified)
system.caches.network.routers0.throttle00.msg_bytes.Response_Data::4     63976176                       (Unspecified)
system.caches.network.routers0.throttle00.msg_count.Writeback_Control::3       888526                       (Unspecified)
system.caches.network.routers0.throttle00.msg_bytes.Writeback_Control::3      7108208                       (Unspecified)
system.caches.network.routers0.throttle01.link_utilization     5.895039                       (Unspecified)
system.caches.network.routers0.throttle01.msg_count.Control::2       888558                       (Unspecified)
system.caches.network.routers0.throttle01.msg_bytes.Control::2      7108464                       (Unspecified)
system.caches.network.routers0.throttle01.msg_count.Data::2       888527                       (Unspecified)
system.caches.network.routers0.throttle01.msg_bytes.Data::2     63973944                       (Unspecified)
system.caches.network.routers1.percent_links_utilized     5.895123                       (Unspecified)
system.caches.network.routers1.msg_count.Control::2       888558                       (Unspecified)
system.caches.network.routers1.msg_bytes.Control::2      7108464                       (Unspecified)
system.caches.network.routers1.msg_count.Data::2       888526                       (Unspecified)
system.caches.network.routers1.msg_bytes.Data::2     63973872                       (Unspecified)
system.caches.network.routers1.msg_count.Response_Data::4       888558                       (Unspecified)
system.caches.network.routers1.msg_bytes.Response_Data::4     63976176                       (Unspecified)
system.caches.network.routers1.msg_count.Writeback_Control::3       888526                       (Unspecified)
system.caches.network.routers1.msg_bytes.Writeback_Control::3      7108208                       (Unspecified)
system.caches.network.routers1.port_buffers2.m_buf_msgs     0.023580                       # Average number of messages in buffer (Unspecified)
system.caches.network.routers1.port_buffers2.m_stall_time  9020.901492                       # Average number of cycles messages are stalled in this MB (Unspecified)
system.caches.network.routers1.port_buffers6.m_buf_msgs     0.013786                       # Average number of messages in buffer (Unspecified)
system.caches.network.routers1.port_buffers6.m_stall_time  2120.557545                       # Average number of cycles messages are stalled in this MB (Unspecified)
system.caches.network.routers1.port_buffers7.m_buf_msgs     0.011832                       # Average number of messages in buffer (Unspecified)
system.caches.network.routers1.port_buffers7.m_stall_time  2002.196995                       # Average number of cycles messages are stalled in this MB (Unspecified)
system.caches.network.routers1.power_state.pwrStateResidencyTicks::UNDEFINED  75362467000                       # Cumulative time (in ticks) in various power states (Tick)
system.caches.network.routers1.throttle00.link_utilization     5.895038                       (Unspecified)
system.caches.network.routers1.throttle00.msg_count.Control::2       888558                       (Unspecified)
system.caches.network.routers1.throttle00.msg_bytes.Control::2      7108464                       (Unspecified)
system.caches.network.routers1.throttle00.msg_count.Data::2       888526                       (Unspecified)
system.caches.network.routers1.throttle00.msg_bytes.Data::2     63973872                       (Unspecified)
system.caches.network.routers1.throttle01.link_utilization     5.895208                       (Unspecified)
system.caches.network.routers1.throttle01.msg_count.Response_Data::4       888558                       (Unspecified)
system.caches.network.routers1.throttle01.msg_bytes.Response_Data::4     63976176                       (Unspecified)
system.caches.network.routers1.throttle01.msg_count.Writeback_Control::3       888526                       (Unspecified)
system.caches.network.routers1.throttle01.msg_bytes.Writeback_Control::3      7108208                       (Unspecified)
system.caches.power_state.pwrStateResidencyTicks::UNDEFINED  75362467000                       # Cumulative time (in ticks) in various power states (Tick)
system.caches.sequencers.power_state.pwrStateResidencyTicks::UNDEFINED  75362467000                       # Cumulative time (in ticks) in various power states (Tick)
system.caches.sys_port_proxy.power_state.pwrStateResidencyTicks::UNDEFINED  75362467000                       # Cumulative time (in ticks) in various power states (Tick)
system.clk_domain.clock                          1000                       # Clock period in ticks (Tick)
system.clk_domain.voltage_domain.voltage            1                       # Voltage in Volts (Volt)
system.cpu.numCycles                         75362468                       # Number of cpu cycles simulated (Cycle)
system.cpu.numWorkItemsStarted                      0                       # Number of work items this cpu started (Count)
system.cpu.numWorkItemsCompleted                    0                       # Number of work items this cpu completed (Count)
system.cpu.instsAdded                        96157185                       # Number of instructions added to the IQ (excludes non-spec) (Count)
system.cpu.nonSpecInstsAdded                   923974                       # Number of non-speculative instructions added to the IQ (Count)
system.cpu.instsIssued                       92875052                       # Number of instructions issued (Count)
system.cpu.squashedInstsIssued                   1386                       # Number of squashed instructions issued (Count)
system.cpu.squashedInstsExamined             13879184                       # Number of squashed instructions iterated over during squash; mainly for profiling (Count)
system.cpu.squashedOperandsExamined          16337396                       # Number of squashed operands that are examined and possibly removed from graph (Count)
system.cpu.squashedNonSpecRemoved                6334                       # Number of squashed non-spec instructions that were removed (Count)
system.cpu.numIssuedDist::samples            70497734                       # Number of insts issued each cycle (Count)
system.cpu.numIssuedDist::mean               1.317419                       # Number of insts issued each cycle (Count)
system.cpu.numIssuedDist::stdev              1.837758                       # Number of insts issued each cycle (Count)
system.cpu.numIssuedDist::underflows                0      0.00%      0.00% # Number of insts issued each cycle (Count)
system.cpu.numIssuedDist::0                  37287978     52.89%     52.89% # Number of insts issued each cycle (Count)
system.cpu.numIssuedDist::1                  10737218     15.23%     68.12% # Number of insts issued each cycle (Count)
system.cpu.numIssuedDist::2                   6538355      9.27%     77.40% # Number of insts issued each cycle (Count)
system.cpu.numIssuedDist::3                   5315481      7.54%     84.94% # Number of insts issued each cycle (Count)
system.cpu.numIssuedDist::4                   3827077      5.43%     90.37% # Number of insts issued each cycle (Count)
system.cpu.numIssuedDist::5                   3943193      5.59%     95.96% # Number of insts issued each cycle (Count)
system.cpu.numIssuedDist::6                   2032140      2.88%     98.84% # Number of insts issued each cycle (Count)
system.cpu.numIssuedDist::7                    632768      0.90%     99.74% # Number of insts issued each cycle (Count)
system.cpu.numIssuedDist::8                    183524      0.26%    100.00% # Number of insts issued each cycle (Count)
system.cpu.numIssuedDist::overflows                 0      0.00%    100.00% # Number of insts issued each cycle (Count)
system.cpu.numIssuedDist::min_value                 0                       # Number of insts issued each cycle (Count)
system.cpu.numIssuedDist::max_value                 8                       # Number of insts issued each cycle (Count)
system.cpu.numIssuedDist::total              70497734                       # Number of insts issued each cycle (Count)
system.cpu.statFuBusy::No_OpClass                   0      0.00%      0.00% # attempts to use FU when none available (Count)
system.cpu.statFuBusy::IntAlu                   40147     18.45%     18.45% # attempts to use FU when none available (Count)
system.cpu.statFuBusy::IntMult                      0      0.00%     18.45% # attempts to use FU when none available (Count)
system.cpu.statFuBusy::IntDiv                       0      0.00%     18.45% # attempts to use FU when none available (Count)
system.cpu.statFuBusy::FloatAdd                     0      0.00%     18.45% # attempts to use FU when none available (Count)
system.cpu.statFuBusy::FloatCmp                     0      0.00%     18.45% # attempts to use FU when none available (Count)
system.cpu.statFuBusy::FloatCvt                     0      0.00%     18.45% # attempts to use FU when none available (Count)
system.cpu.statFuBusy::FloatMult                    0      0.00%     18.45% # attempts to use FU when none available (Count)
system.cpu.statFuBusy::FloatMultAcc                 0      0.00%     18.45% # attempts to use FU when none available (Count)
system.cpu.statFuBusy::FloatDiv                     0      0.00%     18.45% # attempts to use FU when none available (Count)
system.cpu.statFuBusy::FloatMisc                    0      0.00%     18.45% # attempts to use FU when none available (Count)
system.cpu.statFuBusy::FloatSqrt                    0      0.00%     18.45% # attempts to use FU when none available (Count)
system.cpu.statFuBusy::SimdAdd                      0      0.00%     18.45% # attempts to use FU when none available (Count)
system.cpu.statFuBusy::SimdAddAcc                   0      0.00%     18.45% # attempts to use FU when none available (Count)
system.cpu.statFuBusy::SimdAlu                     37      0.02%     18.47% # attempts to use FU when none available (Count)
system.cpu.statFuBusy::SimdCmp                      0      0.00%     18.47% # attempts to use FU when none available (Count)
system.cpu.statFuBusy::SimdCvt                    128      0.06%     18.53% # attempts to use FU when none available (Count)
system.cpu.statFuBusy::SimdMisc                     4      0.00%     18.53% # attempts to use FU when none available (Count)
system.cpu.statFuBusy::SimdMult                     0      0.00%     18.53% # attempts to use FU when none available (Count)
system.cpu.statFuBusy::SimdMultAcc                  0      0.00%     18.53% # attempts to use FU when none available (Count)
system.cpu.statFuBusy::SimdShift                   26      0.01%     18.54% # attempts to use FU when none available (Count)
system.cpu.statFuBusy::SimdShiftAcc                 0      0.00%     18.54% # attempts to use FU when none available (Count)
system.cpu.statFuBusy::SimdDiv                      0      0.00%     18.54% # attempts to use FU when none available (Count)
system.cpu.statFuBusy::SimdSqrt                     0      0.00%     18.54% # attempts to use FU when none available (Count)
system.cpu.statFuBusy::SimdFloatAdd                 0      0.00%     18.54% # attempts to use FU when none available (Count)
system.cpu.statFuBusy::SimdFloatAlu                 0      0.00%     18.54% # attempts to use FU when none available (Count)
system.cpu.statFuBusy::SimdFloatCmp                 0      0.00%     18.54% # attempts to use FU when none available (Count)
system.cpu.statFuBusy::SimdFloatCvt                 0      0.00%     18.54% # attempts to use FU when none available (Count)
system.cpu.statFuBusy::SimdFloatDiv                 0      0.00%     18.54% # attempts to use FU when none available (Count)
system.cpu.statFuBusy::SimdFloatMisc                0      0.00%     18.54% # attempts to use FU when none available (Count)
system.cpu.statFuBusy::SimdFloatMult                0      0.00%     18.54% # attempts to use FU when none available (Count)
system.cpu.statFuBusy::SimdFloatMultAcc             0      0.00%     18.54% # attempts to use FU when none available (Count)
system.cpu.statFuBusy::SimdFloatSqrt                0      0.00%     18.54% # attempts to use FU when none available (Count)
system.cpu.statFuBusy::SimdReduceAdd                0      0.00%     18.54% # attempts to use FU when none available (Count)
system.cpu.statFuBusy::SimdReduceAlu                0      0.00%     18.54% # attempts to use FU when none available (Count)
system.cpu.statFuBusy::SimdReduceCmp                0      0.00%     18.54% # attempts to use FU when none available (Count)
system.cpu.statFuBusy::SimdFloatReduceAdd            0      0.00%     18.54% # attempts to use FU when none available (Count)
system.cpu.statFuBusy::SimdFloatReduceCmp            0      0.00%     18.54% # attempts to use FU when none available (Count)
system.cpu.statFuBusy::SimdAes                      0      0.00%     18.54% # attempts to use FU when none available (Count)
system.cpu.statFuBusy::SimdAesMix                   0      0.00%     18.54% # attempts to use FU when none available (Count)
system.cpu.statFuBusy::SimdSha1Hash                 0      0.00%     18.54% # attempts to use FU when none available (Count)
system.cpu.statFuBusy::SimdSha1Hash2                0      0.00%     18.54% # attempts to use FU when none available (Count)
system.cpu.statFuBusy::SimdSha256Hash               0      0.00%     18.54% # attempts to use FU when none available (Count)
system.cpu.statFuBusy::SimdSha256Hash2              0      0.00%     18.54% # attempts to use FU when none available (Count)
system.cpu.statFuBusy::SimdShaSigma2                0      0.00%     18.54% # attempts to use FU when none available (Count)
system.cpu.statFuBusy::SimdShaSigma3                0      0.00%     18.54% # attempts to use FU when none available (Count)
system.cpu.statFuBusy::SimdPredAlu                  0      0.00%     18.54% # attempts to use FU when none available (Count)
system.cpu.statFuBusy::MemRead                 172645     79.36%     97.90% # attempts to use FU when none available (Count)
system.cpu.statFuBusy::MemWrite                  4228      1.94%     99.85% # attempts to use FU when none available (Count)
system.cpu.statFuBusy::FloatMemRead               224      0.10%     99.95% # attempts to use FU when none available (Count)
system.cpu.statFuBusy::FloatMemWrite              111      0.05%    100.00% # attempts to use FU when none available (Count)
system.cpu.statFuBusy::IprAccess                    0      0.00%    100.00% # attempts to use FU when none available (Count)
system.cpu.statFuBusy::InstPrefetch                 0      0.00%    100.00% # attempts to use FU when none available (Count)
system.cpu.statIssuedInstType_0::No_OpClass      1614925      1.74%      1.74% # Number of instructions issued per FU type, per thread (Count)
system.cpu.statIssuedInstType_0::IntAlu      54093896     58.24%     59.98% # Number of instructions issued per FU type, per thread (Count)
system.cpu.statIssuedInstType_0::IntMult         1912      0.00%     59.98% # Number of instructions issued per FU type, per thread (Count)
system.cpu.statIssuedInstType_0::IntDiv         37659      0.04%     60.03% # Number of instructions issued per FU type, per thread (Count)
system.cpu.statIssuedInstType_0::FloatAdd      1843747      1.99%     62.01% # Number of instructions issued per FU type, per thread (Count)
system.cpu.statIssuedInstType_0::FloatCmp            0      0.00%     62.01% # Number of instructions issued per FU type, per thread (Count)
system.cpu.statIssuedInstType_0::FloatCvt       262384      0.28%     62.29% # Number of instructions issued per FU type, per thread (Count)
system.cpu.statIssuedInstType_0::FloatMult       262144      0.28%     62.58% # Number of instructions issued per FU type, per thread (Count)
system.cpu.statIssuedInstType_0::FloatMultAcc            0      0.00%     62.58% # Number of instructions issued per FU type, per thread (Count)
system.cpu.statIssuedInstType_0::FloatDiv            0      0.00%     62.58% # Number of instructions issued per FU type, per thread (Count)
system.cpu.statIssuedInstType_0::FloatMisc            0      0.00%     62.58% # Number of instructions issued per FU type, per thread (Count)
system.cpu.statIssuedInstType_0::FloatSqrt            0      0.00%     62.58% # Number of instructions issued per FU type, per thread (Count)
system.cpu.statIssuedInstType_0::SimdAdd         6727      0.01%     62.58% # Number of instructions issued per FU type, per thread (Count)
system.cpu.statIssuedInstType_0::SimdAddAcc            0      0.00%     62.58% # Number of instructions issued per FU type, per thread (Count)
system.cpu.statIssuedInstType_0::SimdAlu       274274      0.30%     62.88% # Number of instructions issued per FU type, per thread (Count)
system.cpu.statIssuedInstType_0::SimdCmp            8      0.00%     62.88% # Number of instructions issued per FU type, per thread (Count)
system.cpu.statIssuedInstType_0::SimdCvt        13965      0.02%     62.89% # Number of instructions issued per FU type, per thread (Count)
system.cpu.statIssuedInstType_0::SimdMisc       405719      0.44%     63.33% # Number of instructions issued per FU type, per thread (Count)
system.cpu.statIssuedInstType_0::SimdMult            0      0.00%     63.33% # Number of instructions issued per FU type, per thread (Count)
system.cpu.statIssuedInstType_0::SimdMultAcc            0      0.00%     63.33% # Number of instructions issued per FU type, per thread (Count)
system.cpu.statIssuedInstType_0::SimdShift         1022      0.00%     63.33% # Number of instructions issued per FU type, per thread (Count)
system.cpu.statIssuedInstType_0::SimdShiftAcc            0      0.00%     63.33% # Number of instructions issued per FU type, per thread (Count)
system.cpu.statIssuedInstType_0::SimdDiv            0      0.00%     63.33% # Number of instructions issued per FU type, per thread (Count)
system.cpu.statIssuedInstType_0::SimdSqrt            0      0.00%     63.33% # Number of instructions issued per FU type, per thread (Count)
system.cpu.statIssuedInstType_0::SimdFloatAdd       524308      0.56%     63.90% # Number of instructions issued per FU type, per thread (Count)
system.cpu.statIssuedInstType_0::SimdFloatAlu            0      0.00%     63.90% # Number of instructions issued per FU type, per thread (Count)
system.cpu.statIssuedInstType_0::SimdFloatCmp            0      0.00%     63.90% # Number of instructions issued per FU type, per thread (Count)
system.cpu.statIssuedInstType_0::SimdFloatCvt       393291      0.42%     64.32% # Number of instructions issued per FU type, per thread (Count)
system.cpu.statIssuedInstType_0::SimdFloatDiv       131079      0.14%     64.46% # Number of instructions issued per FU type, per thread (Count)
system.cpu.statIssuedInstType_0::SimdFloatMisc            0      0.00%     64.46% # Number of instructions issued per FU type, per thread (Count)
system.cpu.statIssuedInstType_0::SimdFloatMult       393223      0.42%     64.88% # Number of instructions issued per FU type, per thread (Count)
system.cpu.statIssuedInstType_0::SimdFloatMultAcc            0      0.00%     64.88% # Number of instructions issued per FU type, per thread (Count)
system.cpu.statIssuedInstType_0::SimdFloatSqrt            0      0.00%     64.88% # Number of instructions issued per FU type, per thread (Count)
system.cpu.statIssuedInstType_0::SimdReduceAdd            0      0.00%     64.88% # Number of instructions issued per FU type, per thread (Count)
system.cpu.statIssuedInstType_0::SimdReduceAlu            0      0.00%     64.88% # Number of instructions issued per FU type, per thread (Count)
system.cpu.statIssuedInstType_0::SimdReduceCmp            0      0.00%     64.88% # Number of instructions issued per FU type, per thread (Count)
system.cpu.statIssuedInstType_0::SimdFloatReduceAdd            0      0.00%     64.88% # Number of instructions issued per FU type, per thread (Count)
system.cpu.statIssuedInstType_0::SimdFloatReduceCmp            0      0.00%     64.88% # Number of instructions issued per FU type, per thread (Count)
system.cpu.statIssuedInstType_0::SimdAes            0      0.00%     64.88% # Number of instructions issued per FU type, per thread (Count)
system.cpu.statIssuedInstType_0::SimdAesMix            0      0.00%     64.88% # Number of instructions issued per FU type, per thread (Count)
system.cpu.statIssuedInstType_0::SimdSha1Hash            0      0.00%     64.88% # Number of instructions issued per FU type, per thread (Count)
system.cpu.statIssuedInstType_0::SimdSha1Hash2            0      0.00%     64.88% # Number of instructions issued per FU type, per thread (Count)
system.cpu.statIssuedInstType_0::SimdSha256Hash            0      0.00%     64.88% # Number of instructions issued per FU type, per thread (Count)
system.cpu.statIssuedInstType_0::SimdSha256Hash2            0      0.00%     64.88% # Number of instructions issued per FU type, per thread (Count)
system.cpu.statIssuedInstType_0::SimdShaSigma2            0      0.00%     64.88% # Number of instructions issued per FU type, per thread (Count)
system.cpu.statIssuedInstType_0::SimdShaSigma3            0      0.00%     64.88% # Number of instructions issued per FU type, per thread (Count)
system.cpu.statIssuedInstType_0::SimdPredAlu            0      0.00%     64.88% # Number of instructions issued per FU type, per thread (Count)
system.cpu.statIssuedInstType_0::MemRead     19224535     20.70%     85.58% # Number of instructions issued per FU type, per thread (Count)
system.cpu.statIssuedInstType_0::MemWrite      9687431     10.43%     96.01% # Number of instructions issued per FU type, per thread (Count)
system.cpu.statIssuedInstType_0::FloatMemRead      2380366      2.56%     98.58% # Number of instructions issued per FU type, per thread (Count)
system.cpu.statIssuedInstType_0::FloatMemWrite      1322437      1.42%    100.00% # Number of instructions issued per FU type, per thread (Count)
system.cpu.statIssuedInstType_0::IprAccess            0      0.00%    100.00% # Number of instructions issued per FU type, per thread (Count)
system.cpu.statIssuedInstType_0::InstPrefetch            0      0.00%    100.00% # Number of instructions issued per FU type, per thread (Count)
system.cpu.statIssuedInstType_0::total       92875052                       # Number of instructions issued per FU type, per thread (Count)
system.cpu.issueRate                         1.232378                       # Inst issue rate ((Count/Cycle))
system.cpu.fuBusy                              217550                       # FU busy when requested (Count)
system.cpu.fuBusyRate                        0.002342                       # FU busy rate (busy events/executed inst) ((Count/Count))
system.cpu.intInstQueueReads                237929268                       # Number of integer instruction queue reads (Count)
system.cpu.intInstQueueWrites               101632987                       # Number of integer instruction queue writes (Count)
system.cpu.intInstQueueWakeupAccesses        82960093                       # Number of integer instruction queue wakeup accesses (Count)
system.cpu.fpInstQueueReads                  18537501                       # Number of floating instruction queue reads (Count)
system.cpu.fpInstQueueWrites                  9330498                       # Number of floating instruction queue writes (Count)
system.cpu.fpInstQueueWakeupAccesses          9264714                       # Number of floating instruction queue wakeup accesses (Count)
system.cpu.vecInstQueueReads                        0                       # Number of vector instruction queue reads (Count)
system.cpu.vecInstQueueWrites                       0                       # Number of vector instruction queue writes (Count)
system.cpu.vecInstQueueWakeupAccesses               0                       # Number of vector instruction queue wakeup accesses (Count)
system.cpu.intAluAccesses                    82208693                       # Number of integer alu accesses (Count)
system.cpu.fpAluAccesses                      9268984                       # Number of floating point alu accesses (Count)
system.cpu.vecAluAccesses                           0                       # Number of vector alu accesses (Count)
system.cpu.idleCycles                               0                       # Number of cycles IEW is idle (Cycle)
system.cpu.squashCycles                        161138                       # Number of cycles IEW is squashing (Cycle)
system.cpu.blockCycles                        2199043                       # Number of cycles IEW is blocking (Cycle)
system.cpu.unblockCycles                       586669                       # Number of cycles IEW is unblocking (Cycle)
system.cpu.dispatchedInsts                   97081159                       # Number of instructions dispatched to IQ (Count)
system.cpu.dispSquashedInsts                     1225                       # Number of squashed instructions skipped by dispatch (Count)
system.cpu.dispLoadInsts                     22435287                       # Number of dispatched load instructions (Count)
system.cpu.dispStoreInsts                    11437612                       # Number of dispatched store instructions (Count)
system.cpu.dispNonSpecInsts                    923970                       # Number of dispatched non-speculative instructions (Count)
system.cpu.iqFullEvents                         19843                       # Number of times the IQ has become full, causing a stall (Count)
system.cpu.lsqFullEvents                       551077                       # Number of times the LSQ has become full, causing a stall (Count)
system.cpu.memOrderViolationEvents               3596                       # Number of memory order violations (Count)
system.cpu.predictedTakenIncorrect              72613                       # Number of branches that were predicted taken incorrectly (Count)
system.cpu.predictedNotTakenIncorrect           75408                       # Number of branches that were predicted not taken incorrectly (Count)
system.cpu.branchMispredicts                   148021                       # Number of branch mispredicts detected at execute (Count)
system.cpu.numInsts                          92457101                       # Number of executed instructions (Count)
system.cpu.numLoadInsts                      21502584                       # Number of load instructions executed (Count)
system.cpu.numSquashedInsts                    417946                       # Number of squashed instructions skipped in execute (Count)
system.cpu.numSwp                                   0                       # Number of swp insts executed (Count)
system.cpu.numNop                                   0                       # Number of nop insts executed (Count)
system.cpu.numRefs                           32374697                       # Number of memory reference insts executed (Count)
system.cpu.numBranches                        6944095                       # Number of branches executed (Count)
system.cpu.numStoreInsts                     10872113                       # Number of stores executed (Count)
system.cpu.numRate                           1.226832                       # Inst execution rate ((Count/Cycle))
system.cpu.instsToCommit                     92310998                       # Cumulative count of insts sent to commit (Count)
system.cpu.writebackCount                    92224807                       # Cumulative count of insts written-back (Count)
system.cpu.producerInst                      65728397                       # Number of instructions producing a value (Count)
system.cpu.consumerInst                     105888563                       # Number of instructions consuming a value (Count)
system.cpu.wbRate                            1.223750                       # Insts written-back per cycle ((Count/Cycle))
system.cpu.wbFanout                          0.620732                       # Average fanout of values written-back ((Count/Count))
system.cpu.timesIdled                          183279                       # Number of times that the entire CPU went into an idle state and unscheduled itself (Count)
system.cpu.idleCycles                         4864734                       # Total number of cycles that the CPU has spent unscheduled due to idling (Cycle)
system.cpu.committedInsts                    46698355                       # Number of Instructions Simulated (Count)
system.cpu.committedOps                      83201955                       # Number of Ops (including micro ops) Simulated (Count)
system.cpu.cpi                               1.613814                       # CPI: Cycles Per Instruction ((Cycle/Count))
system.cpu.totalCpi                          1.613814                       # CPI: Total CPI of All Threads ((Cycle/Count))
system.cpu.ipc                               0.619650                       # IPC: Instructions Per Cycle ((Count/Cycle))
system.cpu.totalIpc                          0.619650                       # IPC: Total IPC of All Threads ((Count/Cycle))
system.cpu.intRegfileReads                  145799172                       # Number of integer regfile reads (Count)
system.cpu.intRegfileWrites                  64848744                       # Number of integer regfile writes (Count)
system.cpu.fpRegfileReads                     9167123                       # Number of floating regfile reads (Count)
system.cpu.fpRegfileWrites                    7411062                       # Number of floating regfile writes (Count)
system.cpu.ccRegfileReads                    19396604                       # number of cc regfile reads (Count)
system.cpu.ccRegfileWrites                   19742874                       # number of cc regfile writes (Count)
system.cpu.miscRegfileReads                  47445396                       # number of misc regfile reads (Count)
system.cpu.miscRegfileWrites                  1835143                       # number of misc regfile writes (Count)
system.cpu.MemDepUnit__0.insertedLoads       22435287                       # Number of loads inserted to the mem dependence unit. (Count)
system.cpu.MemDepUnit__0.insertedStores      11437612                       # Number of stores inserted to the mem dependence unit. (Count)
system.cpu.MemDepUnit__0.conflictingLoads      8764536                       # Number of conflicting loads. (Count)
system.cpu.MemDepUnit__0.conflictingStores      2130486                       # Number of conflicting stores. (Count)
system.cpu.MemDepUnit__1.insertedLoads              0                       # Number of loads inserted to the mem dependence unit. (Count)
system.cpu.MemDepUnit__1.insertedStores             0                       # Number of stores inserted to the mem dependence unit. (Count)
system.cpu.MemDepUnit__1.conflictingLoads            0                       # Number of conflicting loads. (Count)
system.cpu.MemDepUnit__1.conflictingStores            0                       # Number of conflicting stores. (Count)
system.cpu.MemDepUnit__2.insertedLoads              0                       # Number of loads inserted to the mem dependence unit. (Count)
system.cpu.MemDepUnit__2.insertedStores             0                       # Number of stores inserted to the mem dependence unit. (Count)
system.cpu.MemDepUnit__2.conflictingLoads            0                       # Number of conflicting loads. (Count)
system.cpu.MemDepUnit__2.conflictingStores            0                       # Number of conflicting stores. (Count)
system.cpu.MemDepUnit__3.insertedLoads              0                       # Number of loads inserted to the mem dependence unit. (Count)
system.cpu.MemDepUnit__3.insertedStores             0                       # Number of stores inserted to the mem dependence unit. (Count)
system.cpu.MemDepUnit__3.conflictingLoads            0                       # Number of conflicting loads. (Count)
system.cpu.MemDepUnit__3.conflictingStores            0                       # Number of conflicting stores. (Count)
system.cpu.branchPred.lookups                 7612439                       # Number of BP lookups (Count)
system.cpu.branchPred.condPredicted           2825044                       # Number of conditional branches predicted (Count)
system.cpu.branchPred.condIncorrect            146339                       # Number of conditional branches incorrect (Count)
system.cpu.branchPred.BTBLookups              4330794                       # Number of BTB lookups (Count)
system.cpu.branchPred.BTBHits                 4328729                       # Number of BTB hits (Count)
[...]
system.mem_ctrl.rdPerTurnAround::11                 3      0.50%      1.32% # Reads before turning the bus around for writes (Count)
system.mem_ctrl.rdPerTurnAround::12                 3      0.50%      1.82% # Reads before turning the bus around for writes (Count)
system.mem_ctrl.rdPerTurnAround::13                14      2.32%      4.14% # Reads before turning the bus around for writes (Count)
system.mem_ctrl.rdPerTurnAround::14                11      1.82%      5.96% # Reads before turning the bus around for writes (Count)
system.mem_ctrl.rdPerTurnAround::15                22      3.64%      9.60% # Reads before turning the bus around for writes (Count)
system.mem_ctrl.rdPerTurnAround::16               530     87.75%     97.35% # Reads before turning the bus around for writes (Count)
system.mem_ctrl.rdPerTurnAround::17                12      1.99%     99.34% # Reads before turning the bus around for writes (Count)
system.mem_ctrl.rdPerTurnAround::18                 3      0.50%     99.83% # Reads before turning the bus around for writes (Count)
system.mem_ctrl.rdPerTurnAround::19                 1      0.17%    100.00% # Reads before turning the bus around for writes (Count)
system.mem_ctrl.rdPerTurnAround::total            604                       # Reads before turning the bus around for writes (Count)
system.mem_ctrl.wrPerTurnAround::samples          604                       # Writes before turning the bus around for reads (Count)
system.mem_ctrl.wrPerTurnAround::mean       16.014901                       # Writes before turning the bus around for reads (Count)
system.mem_ctrl.wrPerTurnAround::gmean      16.014184                       # Writes before turning the bus around for reads (Count)
system.mem_ctrl.wrPerTurnAround::stdev       0.157013                       # Writes before turning the bus around for reads (Count)
system.mem_ctrl.wrPerTurnAround::16               598     99.01%     99.01% # Writes before turning the bus around for reads (Count)
system.mem_ctrl.wrPerTurnAround::17                 3      0.50%     99.50% # Writes before turning the bus around for reads (Count)
system.mem_ctrl.wrPerTurnAround::18                 3      0.50%    100.00% # Writes before turning the bus around for reads (Count)
system.mem_ctrl.wrPerTurnAround::total            604                       # Writes before turning the bus around for reads (Count)
system.mem_ctrl.bytesReadWrQ                    14592                       # Total number of bytes read from write queue (Byte)
system.mem_ctrl.bytesReadSys                   625792                       # Total read bytes from the system interface side (Byte)
system.mem_ctrl.bytesWrittenSys                625856                       # Total written bytes from the system interface side (Byte)
system.mem_ctrl.avgRdBWSys               781109344.22423542                       # Average system read bandwidth in Byte/s ((Byte/Second))
system.mem_ctrl.avgWrBWSys               781189228.59161365                       # Average system write bandwidth in Byte/s ((Byte/Second))
system.mem_ctrl.totGap                      801258000                       # Total gap between requests (Tick)
system.mem_ctrl.avgGap                       40970.39                       # Average gap between requests ((Tick/Count))
system.mem_ctrl.requestorReadBytes::caches.controllers1       611200                       # Per-requestor bytes read from memory (Byte)
system.mem_ctrl.requestorWriteBytes::caches.controllers1       619072                       # Per-requestor bytes write to memory (Byte)
system.mem_ctrl.requestorReadRate::caches.controllers1 762895708.462001323700                       # Per-requestor bytes read from memory rate ((Byte/Second))
system.mem_ctrl.requestorWriteRate::caches.controllers1 772721485.649522423744                       # Per-requestor bytes write to memory rate ((Byte/Second))
system.mem_ctrl.requestorReadAccesses::caches.controllers1         9778                       # Per-requestor read serviced memory accesses (Count)
system.mem_ctrl.requestorWriteAccesses::caches.controllers1         9779                       # Per-requestor write serviced memory accesses (Count)
system.mem_ctrl.requestorReadTotalLat::caches.controllers1    303972500                       # Per-requestor read total memory access latency (Tick)
system.mem_ctrl.requestorWriteTotalLat::caches.controllers1  19744780500                       # Per-requestor write total memory access latency (Tick)
system.mem_ctrl.requestorReadAvgLat::caches.controllers1     31087.39                       # Per-requestor read average memory access latency ((Tick/Count))
system.mem_ctrl.requestorWriteAvgLat::caches.controllers1   2019100.16                       # Per-requestor write average memory access latency ((Tick/Count))
system.mem_ctrl.dram.bytesRead::caches.controllers1       625792                       # Number of bytes read from this memory (Byte)
system.mem_ctrl.dram.bytesRead::total          625792                       # Number of bytes read from this memory (Byte)
system.mem_ctrl.dram.bytesWritten::caches.controllers1       625856                       # Number of bytes written to this memory (Byte)
system.mem_ctrl.dram.bytesWritten::total       625856                       # Number of bytes written to this memory (Byte)
system.mem_ctrl.dram.numReads::caches.controllers1         9778                       # Number of read requests responded to by this memory (Count)
system.mem_ctrl.dram.numReads::total             9778                       # Number of read requests responded to by this memory (Count)
system.mem_ctrl.dram.numWrites::caches.controllers1         9779                       # Number of write requests responded to by this memory (Count)
system.mem_ctrl.dram.numWrites::total            9779                       # Number of write requests responded to by this memory (Count)
system.mem_ctrl.dram.bwRead::caches.controllers1    781109344                       # Total read bandwidth from this memory ((Byte/Second))
system.mem_ctrl.dram.bwRead::total          781109344                       # Total read bandwidth from this memory ((Byte/Second))
system.mem_ctrl.dram.bwWrite::caches.controllers1    781189229                       # Write bandwidth from this memory ((Byte/Second))
system.mem_ctrl.dram.bwWrite::total         781189229                       # Write bandwidth from this memory ((Byte/Second))
system.mem_ctrl.dram.bwTotal::caches.controllers1   1562298573                       # Total bandwidth to/from this memory ((Byte/Second))
system.mem_ctrl.dram.bwTotal::total        1562298573                       # Total bandwidth to/from this memory ((Byte/Second))
system.mem_ctrl.dram.readBursts                  9550                       # Number of DRAM read bursts (Count)
system.mem_ctrl.dram.writeBursts                 9673                       # Number of DRAM write bursts (Count)
system.mem_ctrl.dram.perBankRdBursts::0           520                       # Per bank write bursts (Count)
system.mem_ctrl.dram.perBankRdBursts::1           562                       # Per bank write bursts (Count)
system.mem_ctrl.dram.perBankRdBursts::2           662                       # Per bank write bursts (Count)
system.mem_ctrl.dram.perBankRdBursts::3           641                       # Per bank write bursts (Count)
system.mem_ctrl.dram.perBankRdBursts::4           601                       # Per bank write bursts (Count)
system.mem_ctrl.dram.perBankRdBursts::5           568                       # Per bank write bursts (Count)
system.mem_ctrl.dram.perBankRdBursts::6           555                       # Per bank write bursts (Count)
system.mem_ctrl.dram.perBankRdBursts::7           638                       # Per bank write bursts (Count)
system.mem_ctrl.dram.perBankRdBursts::8           521                       # Per bank write bursts (Count)
system.mem_ctrl.dram.perBankRdBursts::9           588                       # Per bank write bursts (Count)
system.mem_ctrl.dram.perBankRdBursts::10          592                       # Per bank write bursts (Count)
system.mem_ctrl.dram.perBankRdBursts::11          532                       # Per bank write bursts (Count)
system.mem_ctrl.dram.perBankRdBursts::12          630                       # Per bank write bursts (Count)
system.mem_ctrl.dram.perBankRdBursts::13          717                       # Per bank write bursts (Count)
system.mem_ctrl.dram.perBankRdBursts::14          673                       # Per bank write bursts (Count)
system.mem_ctrl.dram.perBankRdBursts::15          550                       # Per bank write bursts (Count)
system.mem_ctrl.dram.perBankWrBursts::0           520                       # Per bank write bursts (Count)
system.mem_ctrl.dram.perBankWrBursts::1           561                       # Per bank write bursts (Count)
system.mem_ctrl.dram.perBankWrBursts::2           666                       # Per bank write bursts (Count)
system.mem_ctrl.dram.perBankWrBursts::3           658                       # Per bank write bursts (Count)
system.mem_ctrl.dram.perBankWrBursts::4           607                       # Per bank write bursts (Count)
system.mem_ctrl.dram.perBankWrBursts::5           570                       # Per bank write bursts (Count)
system.mem_ctrl.dram.perBankWrBursts::6           555                       # Per bank write bursts (Count)
system.mem_ctrl.dram.perBankWrBursts::7           651                       # Per bank write bursts (Count)
system.mem_ctrl.dram.perBankWrBursts::8           521                       # Per bank write bursts (Count)
system.mem_ctrl.dram.perBankWrBursts::9           591                       # Per bank write bursts (Count)
system.mem_ctrl.dram.perBankWrBursts::10          589                       # Per bank write bursts (Count)
system.mem_ctrl.dram.perBankWrBursts::11          566                       # Per bank write bursts (Count)
system.mem_ctrl.dram.perBankWrBursts::12          646                       # Per bank write bursts (Count)
system.mem_ctrl.dram.perBankWrBursts::13          738                       # Per bank write bursts (Count)
system.mem_ctrl.dram.perBankWrBursts::14          681                       # Per bank write bursts (Count)
system.mem_ctrl.dram.perBankWrBursts::15          553                       # Per bank write bursts (Count)
system.mem_ctrl.dram.totQLat                124910000                       # Total ticks spent queuing (Tick)
system.mem_ctrl.dram.totBusLat               47750000                       # Total ticks spent in databus transfers (Tick)
system.mem_ctrl.dram.totMemAccLat           303972500                       # Total ticks spent from burst creation until serviced by the DRAM (Tick)
system.mem_ctrl.dram.avgQLat                 13079.58                       # Average queueing delay per DRAM burst ((Tick/Count))
system.mem_ctrl.dram.avgBusLat                5000.00                       # Average bus latency per DRAM burst ((Tick/Count))
system.mem_ctrl.dram.avgMemAccLat            31829.58                       # Average memory access latency per DRAM burst ((Tick/Count))
system.mem_ctrl.dram.readRowHits                 8539                       # Number of row buffer hits during reads (Count)
system.mem_ctrl.dram.writeRowHits                8911                       # Number of row buffer hits during writes (Count)
system.mem_ctrl.dram.readRowHitRate             89.41                       # Row buffer hit rate for reads (Ratio)
system.mem_ctrl.dram.writeRowHitRate            92.12                       # Row buffer hit rate for writes (Ratio)
system.mem_ctrl.dram.bytesPerActivate::samples         1767                       # Bytes accessed per row activation (Byte)
system.mem_ctrl.dram.bytesPerActivate::mean   695.669496                       # Bytes accessed per row activation (Byte)
system.mem_ctrl.dram.bytesPerActivate::gmean   490.183607                       # Bytes accessed per row activation (Byte)
system.mem_ctrl.dram.bytesPerActivate::stdev   403.606841                       # Bytes accessed per row activation (Byte)
system.mem_ctrl.dram.bytesPerActivate::0-127          211     11.94%     11.94% # Bytes accessed per row activation (Byte)
system.mem_ctrl.dram.bytesPerActivate::128-255          233     13.19%     25.13% # Bytes accessed per row activation (Byte)
system.mem_ctrl.dram.bytesPerActivate::256-383          106      6.00%     31.13% # Bytes accessed per row activation (Byte)
system.mem_ctrl.dram.bytesPerActivate::384-511           75      4.24%     35.37% # Bytes accessed per row activation (Byte)
system.mem_ctrl.dram.bytesPerActivate::512-639           61      3.45%     38.82% # Bytes accessed per row activation (Byte)
system.mem_ctrl.dram.bytesPerActivate::640-767           35      1.98%     40.80% # Bytes accessed per row activation (Byte)
system.mem_ctrl.dram.bytesPerActivate::768-895           26      1.47%     42.28% # Bytes accessed per row activation (Byte)
system.mem_ctrl.dram.bytesPerActivate::896-1023           27      1.53%     43.80% # Bytes accessed per row activation (Byte)
system.mem_ctrl.dram.bytesPerActivate::1024-1151          993     56.20%    100.00% # Bytes accessed per row activation (Byte)
system.mem_ctrl.dram.bytesPerActivate::total         1767                       # Bytes accessed per row activation (Byte)
system.mem_ctrl.dram.bytesRead                 611200                       # Total number of bytes read from DRAM (Byte)
system.mem_ctrl.dram.bytesWritten              619072                       # Total number of bytes written to DRAM (Byte)
system.mem_ctrl.dram.avgRdBW               762.895708                       # Average DRAM read bandwidth in MiBytes/s ((Byte/Second))
system.mem_ctrl.dram.avgWrBW               772.721486                       # Average DRAM write bandwidth in MiBytes/s ((Byte/Second))
system.mem_ctrl.dram.peakBW                  12800.00                       # Theoretical peak bandwidth in MiByte/s ((Byte/Second))
system.mem_ctrl.dram.busUtil                    12.00                       # Data bus utilization in percentage (Ratio)
system.mem_ctrl.dram.busUtilRead                 5.96                       # Data bus utilization in percentage for reads (Ratio)
system.mem_ctrl.dram.busUtilWrite                6.04                       # Data bus utilization in percentage for writes (Ratio)
system.mem_ctrl.dram.pageHitRate                90.78                       # Row buffer hit rate, read and write combined (Ratio)
system.mem_ctrl.dram.power_state.pwrStateResidencyTicks::UNDEFINED    801158000                       # Cumulative time (in ticks) in various power states (Tick)
system.mem_ctrl.dram.rank0.actEnergy          6426000                       # Energy for activate commands per rank (pJ) (Joule)
system.mem_ctrl.dram.rank0.preEnergy          3400320                       # Energy for precharge commands per rank (pJ) (Joule)
system.mem_ctrl.dram.rank0.readEnergy        33893580                       # Energy for read commands per rank (pJ) (Joule)
system.mem_ctrl.dram.rank0.writeEnergy       24993360                       # Energy for write commands per rank (pJ) (Joule)
system.mem_ctrl.dram.rank0.refreshEnergy 63307920.000000                       # Energy for refresh commands per rank (pJ) (Joule)
system.mem_ctrl.dram.rank0.actBackEnergy    216068760                       # Energy for active background per rank (pJ) (Joule)
system.mem_ctrl.dram.rank0.preBackEnergy    125691840                       # Energy for precharge background per rank (pJ) (Joule)
system.mem_ctrl.dram.rank0.actPowerDownEnergy            0                       # Energy for active power-down per rank (pJ) (Joule)
system.mem_ctrl.dram.rank0.prePowerDownEnergy            0                       # Energy for precharge power-down per rank (pJ) (Joule)
system.mem_ctrl.dram.rank0.selfRefreshEnergy            0                       # Energy for self refresh per rank (pJ) (Joule)
system.mem_ctrl.dram.rank0.totalEnergy      473781780                       # Total energy per rank (pJ) (Joule)
system.mem_ctrl.dram.rank0.averagePower    591.371215                       # Core power per rank (mW) (Watt)
system.mem_ctrl.dram.rank0.totalIdleTime            0                       # Total Idle time Per DRAM Rank (Tick)
system.mem_ctrl.dram.rank0.pwrStateTime::IDLE    322868250                       # Time in different power states (Tick)
system.mem_ctrl.dram.rank0.pwrStateTime::REF     26780000                       # Time in different power states (Tick)
system.mem_ctrl.dram.rank0.pwrStateTime::SREF            0                       # Time in different power states (Tick)
system.mem_ctrl.dram.rank0.pwrStateTime::PRE_PDN            0                       # Time in different power states (Tick)
system.mem_ctrl.dram.rank0.pwrStateTime::ACT    451509750                       # Time in different power states (Tick)
system.mem_ctrl.dram.rank0.pwrStateTime::ACT_PDN            0                       # Time in different power states (Tick)
system.mem_ctrl.dram.rank1.actEnergy          6233220                       # Energy for activate commands per rank (pJ) (Joule)
system.mem_ctrl.dram.rank1.preEnergy          3305445                       # Energy for precharge commands per rank (pJ) (Joule)
system.mem_ctrl.dram.rank1.readEnergy        34293420                       # Energy for read commands per rank (pJ) (Joule)
system.mem_ctrl.dram.rank1.writeEnergy       25499700                       # Energy for write commands per rank (pJ) (Joule)
system.mem_ctrl.dram.rank1.refreshEnergy 63307920.000000                       # Energy for refresh commands per rank (pJ) (Joule)
system.mem_ctrl.dram.rank1.actBackEnergy    212298780                       # Energy for active background per rank (pJ) (Joule)
system.mem_ctrl.dram.rank1.preBackEnergy    128866560                       # Energy for precharge background per rank (pJ) (Joule)
system.mem_ctrl.dram.rank1.actPowerDownEnergy            0                       # Energy for active power-down per rank (pJ) (Joule)
system.mem_ctrl.dram.rank1.prePowerDownEnergy            0                       # Energy for precharge power-down per rank (pJ) (Joule)
system.mem_ctrl.dram.rank1.selfRefreshEnergy            0                       # Energy for self refresh per rank (pJ) (Joule)
system.mem_ctrl.dram.rank1.totalEnergy      473805045                       # Total energy per rank (pJ) (Joule)
system.mem_ctrl.dram.rank1.averagePower    591.400254                       # Core power per rank (mW) (Watt)
system.mem_ctrl.dram.rank1.totalIdleTime            0                       # Total Idle time Per DRAM Rank (Tick)
system.mem_ctrl.dram.rank1.pwrStateTime::IDLE    331089250                       # Time in different power states (Tick)
system.mem_ctrl.dram.rank1.pwrStateTime::REF     26780000                       # Time in different power states (Tick)
system.mem_ctrl.dram.rank1.pwrStateTime::SREF            0                       # Time in different power states (Tick)
system.mem_ctrl.dram.rank1.pwrStateTime::PRE_PDN            0                       # Time in different power states (Tick)
system.mem_ctrl.dram.rank1.pwrStateTime::ACT    443288750                       # Time in different power states (Tick)
system.mem_ctrl.dram.rank1.pwrStateTime::ACT_PDN            0                       # Time in different power states (Tick)
system.mem_ctrl.power_state.pwrStateResidencyTicks::UNDEFINED    801158000                       # Cumulative time (in ticks) in various power states (Tick)
system.workload.inst.arm                            0                       # number of arm instructions executed (Count)
system.workload.inst.quiesce                        0                       # number of quiesce instructions executed (Count)

---------- End Simulation Statistics   ----------
