
---------- Begin Simulation Statistics ----------
simSeconds                                   0.003146                       # Number of seconds simulated (Second)
simTicks                                   3146101000                       # Number of ticks simulated (Tick)
finalTick                                  5497552000                       # Number of ticks from beginning of simulation (restored from checkpoints and never reset) (Tick)
simFreq                                  1000000000000                       # The number of ticks per simulated second ((Tick/Second))
hostSeconds                                      9.72                       # Real time elapsed on the host (Second)
hostTickRate                                323711910                       # The number of ticks simulated per host second (ticks/s) ((Tick/Second))
hostMemory                                    9647260                       # Number of bytes of host memory used (Byte)
simInsts                                      6451886                       # Number of instructions simulated (Count)
simOps                                       12338249                       # Number of ops (including micro ops) simulated (Count)
hostInstRate                                   663847                       # Simulator instruction rate (inst/s) ((Count/Second))
hostOpRate                                    1269506                       # Simulator op (including micro ops) rate (op/s) ((Count/Second))
system.caches.delayHistogram::bucket_size            4                       # delay histogram for all message (Unspecified)
system.caches.delayHistogram::max_bucket           39                       # delay histogram for all message (Unspecified)
system.caches.delayHistogram::samples           44848                       # delay histogram for all message (Unspecified)
system.caches.delayHistogram::mean           0.055878                       # delay histogram for all message (Unspecified)
system.caches.delayHistogram::stdev          0.602800                       # delay histogram for all message (Unspecified)
system.caches.delayHistogram             |       44480     99.18%     99.18% |         272      0.61%     99.79% |          88      0.20%     99.98% |           2      0.00%     99.99% |           4      0.01%    100.00% |           0      0.00%    100.00% |           2      0.00%    100.00% |           0      0.00%    100.00% |           0      0.00%    100.00% |           0      0.00%    100.00% # delay histogram for all message (Unspecified)
system.caches.delayHistogram::total             44848                       # delay histogram for all message (Unspecified)
system.caches.m_outstandReqHistSeqr::bucket_size            1                       (Unspecified)
system.caches.m_outstandReqHistSeqr::max_bucket            9                       (Unspecified)
system.caches.m_outstandReqHistSeqr::samples      1048622                       (Unspecified)
system.caches.m_outstandReqHistSeqr::mean     1.000016                       (Unspecified)
system.caches.m_outstandReqHistSeqr::gmean     1.000011                       (Unspecified)
system.caches.m_outstandReqHistSeqr::stdev     0.004026                       (Unspecified)
system.caches.m_outstandReqHistSeqr      |           0      0.00%      0.00% |     1048605    100.00%    100.00% |          17      0.00%    100.00% |           0      0.00%    100.00% |           0      0.00%    100.00% |           0      0.00%    100.00% |           0      0.00%    100.00% |           0      0.00%    100.00% |           0      0.00%    100.00% |           0      0.00%    100.00% (Unspecified)
system.caches.m_outstandReqHistSeqr::total      1048622                       (Unspecified)
system.caches.m_latencyHistSeqr::bucket_size           32                       (Unspecified)
system.caches.m_latencyHistSeqr::max_bucket          319                       (Unspecified)
system.caches.m_latencyHistSeqr::samples      1048621                       (Unspecified)
system.caches.m_latencyHistSeqr::mean        1.000319                       (Unspecified)
system.caches.m_latencyHistSeqr::gmean       1.000009                       (Unspecified)
system.caches.m_latencyHistSeqr::stdev       0.277889                       (Unspecified)
system.caches.m_latencyHistSeqr          |     1048619    100.00%    100.00% |           1      0.00%    100.00% |           0      0.00%    100.00% |           0      0.00%    100.00% |           0      0.00%    100.00% |           0      0.00%    100.00% |           0      0.00%    100.00% |           0      0.00%    100.00% |           1      0.00%    100.00% |           0      0.00%    100.00% (Unspecified)
system.caches.m_latencyHistSeqr::total        1048621                       (Unspecified)
system.caches.m_hitLatencyHistSeqr::bucket_size            1                       (Unspecified)
system.caches.m_hitLatencyHistSeqr::max_bucket            9                       (Unspecified)
system.caches.m_hitLatencyHistSeqr::samples      1048619                       (Unspecified)
system.caches.m_hitLatencyHistSeqr::mean            1                       (Unspecified)
system.caches.m_hitLatencyHistSeqr::gmean            1                       (Unspecified)
system.caches.m_hitLatencyHistSeqr       |           0      0.00%      0.00% |     1048619    100.00%    100.00% |           0      0.00%    100.00% |           0      0.00%    100.00% |           0      0.00%    100.00% |           0      0.00%    100.00% |           0      0.00%    100.00% |           0      0.00%    100.00% |           0      0.00%    100.00% |           0      0.00%    100.00% (Unspecified)
system.caches.m_hitLatencyHistSeqr::total      1048619                       (Unspecified)
system.caches.m_missLatencyHistSeqr::bucket_size           32                       (Unspecified)
system.caches.m_missLatencyHistSeqr::max_bucket          319                       (Unspecified)
system.caches.m_missLatencyHistSeqr::samples            2                       (Unspecified)
system.caches.m_missLatencyHistSeqr::mean   168.500000                       (Unspecified)
system.caches.m_missLatencyHistSeqr::gmean   126.332894                       (Unspecified)
system.caches.m_missLatencyHistSeqr::stdev   157.684812                       (Unspecified)
system.caches.m_missLatencyHistSeqr      |           0      0.00%      0.00% |           1     50.00%     50.00% |           0      0.00%     50.00% |           0      0.00%     50.00% |           0      0.00%     50.00% |           0      0.00%     50.00% |           0      0.00%     50.00% |           0      0.00%     50.00% |           1     50.00%    100.00% |           0      0.00%    100.00% (Unspecified)
system.caches.m_missLatencyHistSeqr::total            2                       (Unspecified)
system.caches.delayVCHist.vnet_1::bucket_size            1                       # delay histogram for vnet_1 (Unspecified)
system.caches.delayVCHist.vnet_1::max_bucket            9                       # delay histogram for vnet_1 (Unspecified)
system.caches.delayVCHist.vnet_1::samples        22680                       # delay histogram for vnet_1 (Unspecified)
system.caches.delayVCHist.vnet_1::mean       0.003439                       # delay histogram for vnet_1 (Unspecified)
system.caches.delayVCHist.vnet_1::stdev      0.141133                       # delay histogram for vnet_1 (Unspecified)
system.caches.delayVCHist.vnet_1         |       22664     99.93%     99.93% |           0      0.00%     99.93% |           5      0.02%     99.95% |           0      0.00%     99.95% |           1      0.00%     99.96% |           0      0.00%     99.96% |           8      0.04%     99.99% |           0      0.00%     99.99% |           2      0.01%    100.00% |           0      0.00%    100.00% # delay histogram for vnet_1 (Unspecified)
system.caches.delayVCHist.vnet_1::total         22680                       # delay histogram for vnet_1 (Unspecified)
system.caches.delayVCHist.vnet_2::bucket_size            4                       # delay histogram for vnet_2 (Unspecified)
system.caches.delayVCHist.vnet_2::max_bucket           39                       # delay histogram for vnet_2 (Unspecified)
system.caches.delayVCHist.vnet_2::samples        22168                       # delay histogram for vnet_2 (Unspecified)
system.caches.delayVCHist.vnet_2::mean       0.109527                       # delay histogram for vnet_2 (Unspecified)
system.caches.delayVCHist.vnet_2::stdev      0.842066                       # delay histogram for vnet_2 (Unspecified)
system.caches.delayVCHist.vnet_2         |       21811     98.39%     98.39% |         263      1.19%     99.58% |          86      0.39%     99.96% |           2      0.01%     99.97% |           4      0.02%     99.99% |           0      0.00%     99.99% |           2      0.01%    100.00% |           0      0.00%    100.00% |           0      0.00%    100.00% |           0      0.00%    100.00% # delay histogram for vnet_2 (Unspecified)
system.caches.delayVCHist.vnet_2::total         22168                       # delay histogram for vnet_2 (Unspecified)
system.caches.L1Cache_Controller.Load         1518376      0.00%      0.00% (Unspecified)
system.caches.L1Cache_Controller.Ifetch        265019      0.00%      0.00% (Unspecified)
system.caches.L1Cache_Controller.Store         208264      0.00%      0.00% (Unspecified)
system.caches.L1Cache_Controller.Data           22680      0.00%      0.00% (Unspecified)
system.caches.L1Cache_Controller.Replacement        22169      0.00%      0.00% (Unspecified)
system.caches.L1Cache_Controller.Writeback_Ack        22168      0.00%      0.00% (Unspecified)
system.caches.L1Cache_Controller.I.Load         16391      0.00%      0.00% (Unspecified)
system.caches.L1Cache_Controller.I.Ifetch         3497      0.00%      0.00% (Unspecified)
system.caches.L1Cache_Controller.I.Store         2793      0.00%      0.00% (Unspecified)
system.caches.L1Cache_Controller.M.Load       1501985      0.00%      0.00% (Unspecified)
system.caches.L1Cache_Controller.M.Ifetch       261522      0.00%      0.00% (Unspecified)
system.caches.L1Cache_Controller.M.Store       205471      0.00%      0.00% (Unspecified)
system.caches.L1Cache_Controller.M.Replacement        22169      0.00%      0.00% (Unspecified)
system.caches.L1Cache_Controller.MI.Writeback_Ack        22168      0.00%      0.00% (Unspecified)
system.caches.L1Cache_Controller.IS.Data        19887      0.00%      0.00% (Unspecified)
system.caches.L1Cache_Controller.IM.Data         2793      0.00%      0.00% (Unspecified)
system.caches.Directory_Controller.GETX         22680      0.00%      0.00% (Unspecified)
system.caches.Directory_Controller.PUTX         22168      0.00%      0.00% (Unspecified)
system.caches.Directory_Controller.Memory_Data        22680      0.00%      0.00% (Unspecified)
system.caches.Directory_Controller.Memory_Ack        22168      0.00%      0.00% (Unspecified)
system.caches.Directory_Controller.I.GETX        22680      0.00%      0.00% (Unspecified)
system.caches.Directory_Controller.M.PUTX        22168      0.00%      0.00% (Unspecified)
system.caches.Directory_Controller.IM.Memory_Data        22680      0.00%      0.00% (Unspecified)
system.caches.Directory_Controller.MI.Memory_Ack        22168      0.00%      0.00% (Unspecified)
system.caches.MachineType.Directory.miss_mach_latency_hist_seqr::bucket_size           32                       (Unspecified)
system.caches.MachineType.Directory.miss_mach_latency_hist_seqr::max_bucket          319                       (Unspecified)
system.caches.MachineType.Directory.miss_mach_latency_hist_seqr::samples            2                       (Unspecified)
system.caches.MachineType.Directory.miss_mach_latency_hist_seqr::mean   168.500000                       (Unspecified)
system.caches.MachineType.Directory.miss_mach_latency_hist_seqr::gmean   126.332894                       (Unspecified)
system.caches.MachineType.Directory.miss_mach_latency_hist_seqr::stdev   157.684812                       (Unspecified)
system.caches.MachineType.Directory.miss_mach_latency_hist_seqr |           0      0.00%      0.00% |           1     50.00%     50.00% |           0      0.00%     50.00% |           0      0.00%     50.00% |           0      0.00%     50.00% |           0      0.00%     50.00% |           0      0.00%     50.00% |           0      0.00%     50.00% |           1     50.00%    100.00% |           0      0.00%    100.00% (Unspecified)
system.caches.MachineType.Directory.miss_mach_latency_hist_seqr::total            2                       (Unspecified)
system.caches.MachineType.Directory.incomplete_times_seqr        22679                       (Unspecified)
system.caches.RequestType.LD.latency_hist_seqr::bucket_size           32                       (Unspecified)
system.caches.RequestType.LD.latency_hist_seqr::max_bucket          319                       (Unspecified)
system.caches.RequestType.LD.latency_hist_seqr::samples      1048588                       (Unspecified)
system.caches.RequestType.LD.latency_hist_seqr::mean     1.000319                       (Unspecified)
system.caches.RequestType.LD.latency_hist_seqr::gmean     1.000009                       (Unspecified)
system.caches.RequestType.LD.latency_hist_seqr::stdev     0.277893                       (Unspecified)
system.caches.RequestType.LD.latency_hist_seqr |     1048586    100.00%    100.00% |           1      0.00%    100.00% |           0      0.00%    100.00% |           0      0.00%    100.00% |           0      0.00%    100.00% |           0      0.00%    100.00% |           0      0.00%    100.00% |           0      0.00%    100.00% |           1      0.00%    100.00% |           0      0.00%    100.00% (Unspecified)
system.caches.RequestType.LD.latency_hist_seqr::total      1048588                       (Unspecified)
system.caches.RequestType.LD.hit_latency_hist_seqr::bucket_size            1                       (Unspecified)
system.caches.RequestType.LD.hit_latency_hist_seqr::max_bucket            9                       (Unspecified)
system.caches.RequestType.LD.hit_latency_hist_seqr::samples      1048586                       (Unspecified)
system.caches.RequestType.LD.hit_latency_hist_seqr::mean            1                       (Unspecified)
system.caches.RequestType.LD.hit_latency_hist_seqr::gmean            1                       (Unspecified)
system.caches.RequestType.LD.hit_latency_hist_seqr |           0      0.00%      0.00% |     1048586    100.00%    100.00% |           0      0.00%    100.00% |           0      0.00%    100.00% |           0      0.00%    100.00% |           0      0.00%    100.00% |           0      0.00%    100.00% |           0      0.00%    100.00% |           0      0.00%    100.00% |           0      0.00%    100.00% (Unspecified)
system.caches.RequestType.LD.hit_latency_hist_seqr::total      1048586                       (Unspecified)
system.caches.RequestType.LD.miss_latency_hist_seqr::bucket_size           32                       (Unspecified)
system.caches.RequestType.LD.miss_latency_hist_seqr::max_bucket          319                       (Unspecified)
system.caches.RequestType.LD.miss_latency_hist_seqr::samples            2                       (Unspecified)
system.caches.RequestType.LD.miss_latency_hist_seqr::mean   168.500000                       (Unspecified)
system.caches.RequestType.LD.miss_latency_hist_seqr::gmean   126.332894                       (Unspecified)
system.caches.RequestType.LD.miss_latency_hist_seqr::stdev   157.684812                       (Unspecified)
system.caches.RequestType.LD.miss_latency_hist_seqr |           0      0.00%      0.00% |           1     50.00%     50.00% |           0      0.00%     50.00% |           0      0.00%     50.00% |           0      0.00%     50.00% |           0      0.00%     50.00% |           0      0.00%     50.00% |           0      0.00%     50.00% |           1     50.00%    100.00% |           0      0.00%    100.00% (Unspecified)
system.caches.RequestType.LD.miss_latency_hist_seqr::total            2                       (Unspecified)
system.caches.RequestType.ST.latency_hist_seqr::bucket_size            1                       (Unspecified)
system.caches.RequestType.ST.latency_hist_seqr::max_bucket            9                       (Unspecified)
system.caches.RequestType.ST.latency_hist_seqr::samples            1                       (Unspecified)
system.caches.RequestType.ST.latency_hist_seqr::mean            1                       (Unspecified)
system.caches.RequestType.ST.latency_hist_seqr::gmean            1                       (Unspecified)
system.caches.RequestType.ST.latency_hist_seqr::stdev          nan                       (Unspecified)
system.caches.RequestType.ST.latency_hist_seqr |           0      0.00%      0.00% |           1    100.00%    100.00% |           0      0.00%    100.00% |           0      0.00%    100.00% |           0      0.00%    100.00% |           0      0.00%    100.00% |           0      0.00%    100.00% |           0      0.00%    100.00% |           0      0.00%    100.00% |           0      0.00%    100.00% (Unspecified)
system.caches.RequestType.ST.latency_hist_seqr::total            1                       (Unspecified)
system.caches.RequestType.ST.hit_latency_hist_seqr::bucket_size            1                       (Unspecified)
system.caches.RequestType.ST.hit_latency_hist_seqr::max_bucket            9                       (Unspecified)
system.caches.RequestType.ST.hit_latency_hist_seqr::samples            1                       (Unspecified)
system.caches.RequestType.ST.hit_latency_hist_seqr::mean            1                       (Unspecified)
system.caches.RequestType.ST.hit_latency_hist_seqr::gmean            1                       (Unspecified)
system.caches.RequestType.ST.hit_latency_hist_seqr::stdev          nan                       (Unspecified)
system.caches.RequestType.ST.hit_latency_hist_seqr |           0      0.00%      0.00% |           1    100.00%    100.00% |           0      0.00%    100.00% |           0      0.00%    100.00% |           0      0.00%    100.00% |           0      0.00%    100.00% |           0      0.00%    100.00% |           0      0.00%    100.00% |           0      0.00%    100.00% |           0      0.00%    100.00% (Unspecified)
system.caches.RequestType.ST.hit_latency_hist_seqr::total            1                       (Unspecified)
system.caches.RequestType.IFETCH.latency_hist_seqr::bucket_size            1                       (Unspecified)
system.caches.RequestType.IFETCH.latency_hist_seqr::max_bucket            9                       (Unspecified)
system.caches.RequestType.IFETCH.latency_hist_seqr::samples           32                       (Unspecified)
system.caches.RequestType.IFETCH.latency_hist_seqr::mean            1                       (Unspecified)
system.caches.RequestType.IFETCH.latency_hist_seqr::gmean            1                       (Unspecified)
system.caches.RequestType.IFETCH.latency_hist_seqr |           0      0.00%      0.00% |          32    100.00%    100.00% |           0      0.00%    100.00% |           0      0.00%    100.00% |           0      0.00%    100.00% |           0      0.00%    100.00% |           0      0.00%    100.00% |           0      0.00%    100.00% |           0      0.00%    100.00% |           0      0.00%    100.00% (Unspecified)
system.caches.RequestType.IFETCH.latency_hist_seqr::total           32                       (Unspecified)
system.caches.RequestType.IFETCH.hit_latency_hist_seqr::bucket_size            1                       (Unspecified)
system.caches.RequestType.IFETCH.hit_latency_hist_seqr::max_bucket            9                       (Unspecified)
system.caches.RequestType.IFETCH.hit_latency_hist_seqr::samples           32                       (Unspecified)
system.caches.RequestType.IFETCH.hit_latency_hist_seqr::mean            1                       (Unspecified)
system.caches.RequestType.IFETCH.hit_latency_hist_seqr::gmean            1                       (Unspecified)
system.caches.RequestType.IFETCH.hit_latency_hist_seqr |           0      0.00%      0.00% |          32    100.00%    100.00% |           0      0.00%    100.00% |           0      0.00%    100.00% |           0      0.00%    100.00% |           0      0.00%    100.00% |           0      0.00%    100.00% |           0      0.00%    100.00% |           0      0.00%    100.00% |           0      0.00%    100.00% (Unspecified)
system.caches.RequestType.IFETCH.hit_latency_hist_seqr::total           32                       (Unspecified)
system.caches.RequestTypeMachineType.LD.Directory.miss_type_mach_latency_hist_seqr::bucket_size           32                       (Unspecified)
system.caches.RequestTypeMachineType.LD.Directory.miss_type_mach_latency_hist_seqr::max_bucket          319                       (Unspecified)
system.caches.RequestTypeMachineType.LD.Directory.miss_type_mach_latency_hist_seqr::samples            2                       (Unspecified)
system.caches.RequestTypeMachineType.LD.Directory.miss_type_mach_latency_hist_seqr::mean   168.500000                       (Unspecified)
system.caches.RequestTypeMachineType.LD.Directory.miss_type_mach_latency_hist_seqr::gmean   126.332894                       (Unspecified)
system.caches.RequestTypeMachineType.LD.Directory.miss_type_mach_latency_hist_seqr::stdev   157.684812                       (Unspecified)
system.caches.RequestTypeMachineType.LD.Directory.miss_type_mach_latency_hist_seqr |           0      0.00%      0.00% |           1     50.00%     50.00% |           0      0.00%     50.00% |           0      0.00%     50.00% |           0      0.00%     50.00% |           0      0.00%     50.00% |           0      0.00%     50.00% |           0      0.00%     50.00% |           1     50.00%    100.00% |           0      0.00%    100.00% (Unspecified)
system.caches.RequestTypeMachineType.LD.Directory.miss_type_mach_latency_hist_seqr::total            2                       (Unspecified)
system.caches.controllers0.delayHistogram::samples        44848                       # delay_histogram (Unspecified)
system.caches.controllers0.delayHistogram::mean     0.055878                       # delay_histogram (Unspecified)
system.caches.controllers0.delayHistogram::stdev     0.602800                       # delay_histogram (Unspecified)
system.caches.controllers0.delayHistogram::0-3        44480     99.18%     99.18% # delay_histogram (Unspecified)
system.caches.controllers0.delayHistogram::4-7          272      0.61%     99.79% # delay_histogram (Unspecified)
system.caches.controllers0.delayHistogram::8-11           88      0.20%     99.98% # delay_histogram (Unspecified)
system.caches.controllers0.delayHistogram::12-15            2      0.00%     99.99% # delay_histogram (Unspecified)
system.caches.controllers0.delayHistogram::16-19            4      0.01%    100.00% # delay_histogram (Unspecified)
system.caches.controllers0.delayHistogram::24-27            2      0.00%    100.00% # delay_histogram (Unspecified)
system.caches.controllers0.delayHistogram::total        44848                       # delay_histogram (Unspecified)
system.caches.controllers0.cacheMemory.m_demand_hits      1968978                       # Number of cache demand hits (Unspecified)
system.caches.controllers0.cacheMemory.m_demand_misses        22681                       # Number of cache demand misses (Unspecified)
system.caches.controllers0.cacheMemory.m_demand_accesses      1991659                       # Number of cache demand accesses (Unspecified)
system.caches.controllers0.forwardToCache.m_buf_msgs     0.004032                       # Average number of messages in buffer (Unspecified)
system.caches.controllers0.forwardToCache.m_stall_time  5006.646231                       # Average number of cycles messages are stalled in this MB (Unspecified)
system.caches.controllers0.mandatoryQueue.m_buf_msgs     0.362794                       # Average number of messages in buffer (Unspecified)
system.caches.controllers0.mandatoryQueue.m_stall_time  1001.336231                       # Average number of cycles messages are stalled in this MB (Unspecified)
system.caches.controllers0.power_state.pwrStateResidencyTicks::UNDEFINED   5497552000                       # Cumulative time (in ticks) in various power states (Tick)
system.caches.controllers0.requestFromCache.m_buf_msgs     0.016316                       # Average number of messages in buffer (Unspecified)
system.caches.controllers0.requestFromCache.m_stall_time  1999.998909                       # Average number of cycles messages are stalled in this MB (Unspecified)
system.caches.controllers0.responseToCache.m_buf_msgs     0.004125                       # Average number of messages in buffer (Unspecified)
system.caches.controllers0.responseToCache.m_stall_time  5000.152795                       # Average number of cycles messages are stalled in this MB (Unspecified)
system.caches.controllers1.forwardFromDir.m_buf_msgs     0.004032                       # Average number of messages in buffer (Unspecified)
system.caches.controllers1.forwardFromDir.m_stall_time   998.294696                       # Average number of cycles messages are stalled in this MB (Unspecified)
system.caches.controllers1.power_state.pwrStateResidencyTicks::UNDEFINED   5497552000                       # Cumulative time (in ticks) in various power states (Tick)
system.caches.controllers1.requestToDir.m_buf_msgs     0.008158                       # Average number of messages in buffer (Unspecified)
system.caches.controllers1.requestToDir.m_stall_time 10141.913528                       # Average number of cycles messages are stalled in this MB (Unspecified)
system.caches.controllers1.requestToMemory.m_buf_msgs     0.008159                       # Average number of messages in buffer (Unspecified)
system.caches.controllers1.requestToMemory.m_stall_time  1000.028376                       # Average number of cycles messages are stalled in this MB (Unspecified)
system.caches.controllers1.responseFromDir.m_buf_msgs     0.004125                       # Average number of messages in buffer (Unspecified)
system.caches.controllers1.responseFromDir.m_stall_time   999.987449                       # Average number of cycles messages are stalled in this MB (Unspecified)
system.caches.controllers1.responseFromMemory.m_buf_msgs     0.009853                       # Average number of messages in buffer (Unspecified)
system.caches.controllers1.responseFromMemory.m_stall_time   999.987631                       # Average number of cycles messages are stalled in this MB (Unspecified)
system.caches.network.msg_count.Control         45360                       (Unspecified)
system.caches.network.msg_byte.Control         362880                       (Unspecified)
system.caches.network.msg_count.Data            44336                       (Unspecified)
system.caches.network.msg_byte.Data           3192192                       (Unspecified)
system.caches.network.msg_count.Response_Data        45360                       (Unspecified)
system.caches.network.msg_byte.Response_Data      3265920                       (Unspecified)
system.caches.network.msg_count.Writeback_Control        44336                       (Unspecified)
system.caches.network.msg_byte.Writeback_Control       354688                       (Unspecified)
system.caches.network.int_link_buffers2.m_buf_msgs     0.000001                       # Average number of messages in buffer (Unspecified)
system.caches.network.int_link_buffers2.m_stall_time  7999.989829                       # Average number of cycles messages are stalled in this MB (Unspecified)
system.caches.network.int_link_buffers8.m_buf_msgs     0.000001                       # Average number of messages in buffer (Unspecified)
system.caches.network.int_link_buffers8.m_stall_time         3000                       # Average number of cycles messages are stalled in this MB (Unspecified)
system.caches.network.int_link_buffers9.m_buf_msgs     0.000001                       # Average number of messages in buffer (Unspecified)
system.caches.network.int_link_buffers9.m_stall_time         3000                       # Average number of cycles messages are stalled in this MB (Unspecified)
system.caches.network.power_state.pwrStateResidencyTicks::UNDEFINED   5497552000                       # Cumulative time (in ticks) in various power states (Tick)
system.caches.network.routers0.percent_links_utilized     0.000318                       (Unspecified)
system.caches.network.routers0.msg_count.Control::2        22680                       (Unspecified)
system.caches.network.routers0.msg_bytes.Control::2       181440                       (Unspecified)
system.caches.network.routers0.msg_count.Data::2        22168                       (Unspecified)
system.caches.network.routers0.msg_bytes.Data::2      1596096                       (Unspecified)
system.caches.network.routers0.msg_count.Response_Data::4        22680                       (Unspecified)
system.caches.network.routers0.msg_bytes.Response_Data::4      1632960                       (Unspecified)
system.caches.network.routers0.msg_count.Writeback_Control::3        22168                       (Unspecified)
system.caches.network.routers0.msg_bytes.Writeback_Control::3       177344                       (Unspecified)
system.caches.network.routers0.port_buffers3.m_buf_msgs     0.004032                       # Average number of messages in buffer (Unspecified)
system.caches.network.routers0.port_buffers3.m_stall_time  4008.352991                       # Average number of cycles messages are stalled in this MB (Unspecified)
system.caches.network.routers0.port_buffers4.m_buf_msgs     0.004125                       # Average number of messages in buffer (Unspecified)
system.caches.network.routers0.port_buffers4.m_stall_time  4000.166802                       # Average number of cycles messages are stalled in this MB (Unspecified)
system.caches.network.routers0.port_buffers7.m_buf_msgs     0.028541                       # Average number of messages in buffer (Unspecified)
system.caches.network.routers0.port_buffers7.m_stall_time  7141.921168                       # Average number of cycles messages are stalled in this MB (Unspecified)
system.caches.network.routers0.power_state.pwrStateResidencyTicks::UNDEFINED   5497552000                       # Cumulative time (in ticks) in various power states (Tick)
system.caches.network.routers0.throttle00.link_utilization     0.000318                       (Unspecified)
system.caches.network.routers0.throttle00.msg_count.Response_Data::4        22680                       (Unspecified)
system.caches.network.routers0.throttle00.msg_bytes.Response_Data::4      1632960                       (Unspecified)
system.caches.network.routers0.throttle00.msg_count.Writeback_Control::3        22168                       (Unspecified)
system.caches.network.routers0.throttle00.msg_bytes.Writeback_Control::3       177344                       (Unspecified)
system.caches.network.routers0.throttle01.link_utilization     0.000318                       (Unspecified)
system.caches.network.routers0.throttle01.msg_count.Control::2        22680                       (Unspecified)
system.caches.network.routers0.throttle01.msg_bytes.Control::2       181440                       (Unspecified)
system.caches.network.routers0.throttle01.msg_count.Data::2        22168                       (Unspecified)
system.caches.network.routers0.throttle01.msg_bytes.Data::2      1596096                       (Unspecified)
system.caches.network.routers1.percent_links_utilized     0.000318                       (Unspecified)
system.caches.network.routers1.msg_count.Control::2        22680                       (Unspecified)
system.caches.network.routers1.msg_bytes.Control::2       181440                       (Unspecified)
system.caches.network.routers1.msg_count.Data::2        22168                       (Unspecified)
system.caches.network.routers1.msg_bytes.Data::2      1596096                       (Unspecified)
system.caches.network.routers1.msg_count.Response_Data::4        22680                       (Unspecified)
system.caches.network.routers1.msg_bytes.Response_Data::4      1632960                       (Unspecified)
system.caches.network.routers1.msg_count.Writeback_Control::3        22168                       (Unspecified)
system.caches.network.routers1.msg_bytes.Writeback_Control::3       177344                       (Unspecified)
system.caches.network.routers1.port_buffers2.m_buf_msgs     0.008158                       # Average number of messages in buffer (Unspecified)
system.caches.network.routers1.port_buffers2.m_stall_time  9141.916438                       # Average number of cycles messages are stalled in this MB (Unspecified)
system.caches.network.routers1.port_buffers6.m_buf_msgs     0.004253                       # Average number of messages in buffer (Unspecified)
system.caches.network.routers1.port_buffers6.m_stall_time  2011.765418                       # Average number of cycles messages are stalled in this MB (Unspecified)
system.caches.network.routers1.port_buffers7.m_buf_msgs     0.004133                       # Average number of messages in buffer (Unspecified)
system.caches.network.routers1.port_buffers7.m_stall_time  2000.193723                       # Average number of cycles messages are stalled in this MB (Unspecified)
system.caches.network.routers1.power_state.pwrStateResidencyTicks::UNDEFINED   5497552000                       # Cumulative time (in ticks) in various power states (Tick)
system.caches.network.routers1.throttle00.link_utilization     0.000318                       (Unspecified)
system.caches.network.routers1.throttle00.msg_count.Control::2        22680                       (Unspecified)
system.caches.network.routers1.throttle00.msg_bytes.Control::2       181440                       (Unspecified)
system.caches.network.routers1.throttle00.msg_count.Data::2        22168                       (Unspecified)
system.caches.network.routers1.throttle00.msg_bytes.Data::2      1596096                       (Unspecified)
system.caches.network.routers1.throttle01.link_utilization     0.000318                       (Unspecified)
system.caches.network.routers1.throttle01.msg_count.Response_Data::4        22680                       (Unspecified)
system.caches.network.routers1.throttle01.msg_bytes.Response_Data::4      1632960                       (Unspecified)
system.caches.network.routers1.throttle01.msg_count.Writeback_Control::3        22168                       (Unspecified)
system.caches.network.routers1.throttle01.msg_bytes.Writeback_Control::3       177344                       (Unspecified)
system.caches.power_state.pwrStateResidencyTicks::UNDEFINED   5497552000                       # Cumulative time (in ticks) in various power states (Tick)
system.caches.sequencers.power_state.pwrStateResidencyTicks::UNDEFINED   5497552000                       # Cumulative time (in ticks) in various power states (Tick)
system.caches.sys_port_proxy.power_state.pwrStateResidencyTicks::UNDEFINED   5497552000                       # Cumulative time (in ticks) in various power states (Tick)
system.clk_domain.clock                          1000                       # Clock period in ticks (Tick)
system.clk_domain.voltage_domain.voltage            1                       # Voltage in Volts (Volt)
system.cpu.numCycles                          3146101                       # Number of cpu cycles simulated (Cycle)
system.cpu.numWorkItemsStarted                      0                       # Number of work items this cpu started (Count)
system.cpu.numWorkItemsCompleted                    0                       # Number of work items this cpu completed (Count)
system.cpu.instsAdded                         8388846                       # Number of instructions added to the IQ (excludes non-spec) (Count)
system.cpu.nonSpecInstsAdded                        3                       # Number of non-speculative instructions added to the IQ (Count)
system.cpu.instsIssued                        8388808                       # Number of instructions issued (Count)
system.cpu.squashedInstsIssued                      6                       # Number of squashed instructions issued (Count)
system.cpu.squashedInstsExamined                  151                       # Number of squashed instructions iterated over during squash; mainly for profiling (Count)
system.cpu.squashedOperandsExamined                92                       # Number of squashed operands that are examined and possibly removed from graph (Count)
system.cpu.squashedNonSpecRemoved                   2                       # Number of squashed non-spec instructions that were removed (Count)
system.cpu.numIssuedDist::samples             3146101                       # Number of insts issued each cycle (Count)
system.cpu.numIssuedDist::mean               2.666414                       # Number of insts issued each cycle (Count)
system.cpu.numIssuedDist::stdev              1.333625                       # Number of insts issued each cycle (Count)
system.cpu.numIssuedDist::underflows                0      0.00%      0.00% # Number of insts issued each cycle (Count)
system.cpu.numIssuedDist::0                       357      0.01%      0.01% # Number of insts issued each cycle (Count)
system.cpu.numIssuedDist::1                    699053     22.22%     22.23% # Number of insts issued each cycle (Count)
system.cpu.numIssuedDist::2                   1048554     33.33%     55.56% # Number of insts issued each cycle (Count)
system.cpu.numIssuedDist::3                    349527     11.11%     66.67% # Number of insts issued each cycle (Count)
system.cpu.numIssuedDist::4                    699042     22.22%     88.89% # Number of insts issued each cycle (Count)
system.cpu.numIssuedDist::5                    349523     11.11%    100.00% # Number of insts issued each cycle (Count)
system.cpu.numIssuedDist::6                        34      0.00%    100.00% # Number of insts issued each cycle (Count)
system.cpu.numIssuedDist::7                         9      0.00%    100.00% # Number of insts issued each cycle (Count)
system.cpu.numIssuedDist::8                         2      0.00%    100.00% # Number of insts issued each cycle (Count)
system.cpu.numIssuedDist::overflows                 0      0.00%    100.00% # Number of insts issued each cycle (Count)
system.cpu.numIssuedDist::min_value                 0                       # Number of insts issued each cycle (Count)
system.cpu.numIssuedDist::max_value                 8                       # Number of insts issued each cycle (Count)
system.cpu.numIssuedDist::total               3146101                       # Number of insts issued each cycle (Count)
system.cpu.statFuBusy::No_OpClass                   0      0.00%      0.00% # attempts to use FU when none available (Count)
system.cpu.statFuBusy::IntAlu                      27    100.00%    100.00% # attempts to use FU when none available (Count)
system.cpu.statFuBusy::IntMult                      0      0.00%    100.00% # attempts to use FU when none available (Count)
system.cpu.statFuBusy::IntDiv                       0      0.00%    100.00% # attempts to use FU when none available (Count)
system.cpu.statFuBusy::FloatAdd                     0      0.00%    100.00% # attempts to use FU when none available (Count)
system.cpu.statFuBusy::FloatCmp                     0      0.00%    100.00% # attempts to use FU when none available (Count)
system.cpu.statFuBusy::FloatCvt                     0      0.00%    100.00% # attempts to use FU when none available (Count)
system.cpu.statFuBusy::FloatMult                    0      0.00%    100.00% # attempts to use FU when none available (Count)
system.cpu.statFuBusy::FloatMultAcc                 0      0.00%    100.00% # attempts to use FU when none available (Count)
system.cpu.statFuBusy::FloatDiv                     0      0.00%    100.00% # attempts to use FU when none available (Count)
system.cpu.statFuBusy::FloatMisc                    0      0.00%    100.00% # attempts to use FU when none available (Count)
system.cpu.statFuBusy::FloatSqrt                    0      0.00%    100.00% # attempts to use FU when none available (Count)
system.cpu.statFuBusy::SimdAdd                      0      0.00%    100.00% # attempts to use FU when none available (Count)
system.cpu.statFuBusy::SimdAddAcc                   0      0.00%    100.00% # attempts to use FU when none available (Count)
system.cpu.statFuBusy::SimdAlu                      0      0.00%    100.00% # attempts to use FU when none available (Count)
system.cpu.statFuBusy::SimdCmp                      0      0.00%    100.00% # attempts to use FU when none available (Count)
system.cpu.statFuBusy::SimdCvt                      0      0.00%    100.00% # attempts to use FU when none available (Count)
system.cpu.statFuBusy::SimdMisc                     0      0.00%    100.00% # attempts to use FU when none available (Count)
system.cpu.statFuBusy::SimdMult                     0      0.00%    100.00% # attempts to use FU when none available (Count)
system.cpu.statFuBusy::SimdMultAcc                  0      0.00%    100.00% # attempts to use FU when none available (Count)
system.cpu.statFuBusy::SimdShift                    0      0.00%    100.00% # attempts to use FU when none available (Count)
system.cpu.statFuBusy::SimdShiftAcc                 0      0.00%    100.00% # attempts to use FU when none available (Count)
system.cpu.statFuBusy::SimdDiv                      0      0.00%    100.00% # attempts to use FU when none available (Count)
system.cpu.statFuBusy::SimdSqrt                     0      0.00%    100.00% # attempts to use FU when none available (Count)
system.cpu.statFuBusy::SimdFloatAdd                 0      0.00%    100.00% # attempts to use FU when none available (Count)
system.cpu.statFuBusy::SimdFloatAlu                 0      0.00%    100.00% # attempts to use FU when none available (Count)
system.cpu.statFuBusy::SimdFloatCmp                 0      0.00%    100.00% # attempts to use FU when none available (Count)
system.cpu.statFuBusy::SimdFloatCvt                 0      0.00%    100.00% # attempts to use FU when none available (Count)
system.cpu.statFuBusy::SimdFloatDiv                 0      0.00%    100.00% # attempts to use FU when none available (Count)
system.cpu.statFuBusy::SimdFloatMisc                0      0.00%    100.00% # attempts to use FU when none available (Count)
system.cpu.statFuBusy::SimdFloatMult                0      0.00%    100.00% # attempts to use FU when none available (Count)
system.cpu.statFuBusy::SimdFloatMultAcc             0      0.00%    100.00% # attempts to use FU when none available (Count)
system.cpu.statFuBusy::SimdFloatSqrt                0      0.00%    100.00% # attempts to use FU when none available (Count)
system.cpu.statFuBusy::SimdReduceAdd                0      0.00%    100.00% # attempts to use FU when none available (Count)
system.cpu.statFuBusy::SimdReduceAlu                0      0.00%    100.00% # attempts to use FU when none available (Count)
system.cpu.statFuBusy::SimdReduceCmp                0      0.00%    100.00% # attempts to use FU when none available (Count)
system.cpu.statFuBusy::SimdFloatReduceAdd            0      0.00%    100.00% # attempts to use FU when none available (Count)
system.cpu.statFuBusy::SimdFloatReduceCmp            0      0.00%    100.00% # attempts to use FU when none available (Count)
system.cpu.statFuBusy::SimdAes                      0      0.00%    100.00% # attempts to use FU when none available (Count)
system.cpu.statFuBusy::SimdAesMix                   0      0.00%    100.00% # attempts to use FU when none available (Count)
system.cpu.statFuBusy::SimdSha1Hash                 0      0.00%    100.00% # attempts to use FU when none available (Count)
system.cpu.statFuBusy::SimdSha1Hash2                0      0.00%    100.00% # attempts to use FU when none available (Count)
system.cpu.statFuBusy::SimdSha256Hash               0      0.00%    100.00% # attempts to use FU when none available (Count)
system.cpu.statFuBusy::SimdSha256Hash2              0      0.00%    100.00% # attempts to use FU when none available (Count)
system.cpu.statFuBusy::SimdShaSigma2                0      0.00%    100.00% # attempts to use FU when none available (Count)
system.cpu.statFuBusy::SimdShaSigma3                0      0.00%    100.00% # attempts to use FU when none available (Count)
system.cpu.statFuBusy::SimdPredAlu                  0      0.00%    100.00% # attempts to use FU when none available (Count)
system.cpu.statFuBusy::MemRead                      0      0.00%    100.00% # attempts to use FU when none available (Count)
system.cpu.statFuBusy::MemWrite                     0      0.00%    100.00% # attempts to use FU when none available (Count)
system.cpu.statFuBusy::FloatMemRead                 0      0.00%    100.00% # attempts to use FU when none available (Count)
system.cpu.statFuBusy::FloatMemWrite                0      0.00%    100.00% # attempts to use FU when none available (Count)
system.cpu.statFuBusy::IprAccess                    0      0.00%    100.00% # attempts to use FU when none available (Count)
system.cpu.statFuBusy::InstPrefetch                 0      0.00%    100.00% # attempts to use FU when none available (Count)
system.cpu.statIssuedInstType_0::No_OpClass           19      0.00%      0.00% # Number of instructions issued per FU type, per thread (Count)
system.cpu.statIssuedInstType_0::IntAlu       7340178     87.50%     87.50% # Number of instructions issued per FU type, per thread (Count)
system.cpu.statIssuedInstType_0::IntMult            0      0.00%     87.50% # Number of instructions issued per FU type, per thread (Count)
system.cpu.statIssuedInstType_0::IntDiv             0      0.00%     87.50% # Number of instructions issued per FU type, per thread (Count)
system.cpu.statIssuedInstType_0::FloatAdd            0      0.00%     87.50% # Number of instructions issued per FU type, per thread (Count)
system.cpu.statIssuedInstType_0::FloatCmp            0      0.00%     87.50% # Number of instructions issued per FU type, per thread (Count)
system.cpu.statIssuedInstType_0::FloatCvt            0      0.00%     87.50% # Number of instructions issued per FU type, per thread (Count)
system.cpu.statIssuedInstType_0::FloatMult            0      0.00%     87.50% # Number of instructions issued per FU type, per thread (Count)
system.cpu.statIssuedInstType_0::FloatMultAcc            0      0.00%     87.50% # Number of instructions issued per FU type, per thread (Count)
system.cpu.statIssuedInstType_0::FloatDiv            0      0.00%     87.50% # Number of instructions issued per FU type, per thread (Count)
system.cpu.statIssuedInstType_0::FloatMisc            0      0.00%     87.50% # Number of instructions issued per FU type, per thread (Count)
system.cpu.statIssuedInstType_0::FloatSqrt            0      0.00%     87.50% # Number of instructions issued per FU type, per thread (Count)
system.cpu.statIssuedInstType_0::SimdAdd            0      0.00%     87.50% # Number of instructions issued per FU type, per thread (Count)
system.cpu.statIssuedInstType_0::SimdAddAcc            0      0.00%     87.50% # Number of instructions issued per FU type, per thread (Count)
system.cpu.statIssuedInstType_0::SimdAlu            0      0.00%     87.50% # Number of instructions issued per FU type, per thread (Count)
system.cpu.statIssuedInstType_0::SimdCmp            0      0.00%     87.50% # Number of instructions issued per FU type, per thread (Count)
system.cpu.statIssuedInstType_0::SimdCvt            0      0.00%     87.50% # Number of instructions issued per FU type, per thread (Count)
system.cpu.statIssuedInstType_0::SimdMisc            0      0.00%     87.50% # Number of instructions issued per FU type, per thread (Count)
system.cpu.statIssuedInstType_0::SimdMult            0      0.00%     87.50% # Number of instructions issued per FU type, per thread (Count)
system.cpu.statIssuedInstType_0::SimdMultAcc            0      0.00%     87.50% # Number of instructions issued per FU type, per thread (Count)
system.cpu.statIssuedInstType_0::SimdShift            0      0.00%     87.50% # Number of instructions issued per FU type, per thread (Count)
system.cpu.statIssuedInstType_0::SimdShiftAcc            0      0.00%     87.50% # Number of instructions issued per FU type, per thread (Count)
system.cpu.statIssuedInstType_0::SimdDiv            0      0.00%     87.50% # Number of instructions issued per FU type, per thread (Count)
system.cpu.statIssuedInstType_0::SimdSqrt            0      0.00%     87.50% # Number of instructions issued per FU type, per thread (Count)
system.cpu.statIssuedInstType_0::SimdFloatAdd            0      0.00%     87.50% # Number of instructions issued per FU type, per thread (Count)
system.cpu.statIssuedInstType_0::SimdFloatAlu            0      0.00%     87.50% # Number of instructions issued per FU type, per thread (Count)
system.cpu.statIssuedInstType_0::SimdFloatCmp            0      0.00%     87.50% # Number of instructions issued per FU type, per thread (Count)
system.cpu.statIssuedInstType_0::SimdFloatCvt            0      0.00%     87.50% # Number of instructions issued per FU type, per thread (Count)
system.cpu.statIssuedInstType_0::SimdFloatDiv            0      0.00%     87.50% # Number of instructions issued per FU type, per thread (Count)
system.cpu.statIssuedInstType_0::SimdFloatMisc            0      0.00%     87.50% # Number of instructions issued per FU type, per thread (Count)
system.cpu.statIssuedInstType_0::SimdFloatMult            0      0.00%     87.50% # Number of instructions issued per FU type, per thread (Count)
system.cpu.statIssuedInstType_0::SimdFloatMultAcc            0      0.00%     87.50% # Number of instructions issued per FU type, per thread (Count)
system.cpu.statIssuedInstType_0::SimdFloatSqrt            0      0.00%     87.50% # Number of instructions issued per FU type, per thread (Count)
system.cpu.statIssuedInstType_0::SimdReduceAdd            0      0.00%     87.50% # Number of instructions issued per FU type, per thread (Count)
system.cpu.statIssuedInstType_0::SimdReduceAlu            0      0.00%     87.50% # Number of instructions issued per FU type, per thread (Count)
system.cpu.statIssuedInstType_0::SimdReduceCmp            0      0.00%     87.50% # Number of instructions issued per FU type, per thread (Count)
system.cpu.statIssuedInstType_0::SimdFloatReduceAdd            0      0.00%     87.50% # Number of instructions issued per FU type, per thread (Count)
system.cpu.statIssuedInstType_0::SimdFloatReduceCmp            0      0.00%     87.50% # Number of instructions issued per FU type, per thread (Count)
system.cpu.statIssuedInstType_0::SimdAes            0      0.00%     87.50% # Number of instructions issued per FU type, per thread (Count)
system.cpu.statIssuedInstType_0::SimdAesMix            0      0.00%     87.50% # Number of instructions issued per FU type, per thread (Count)
system.cpu.statIssuedInstType_0::SimdSha1Hash            0      0.00%     87.50% # Number of instructions issued per FU type, per thread (Count)
system.cpu.statIssuedInstType_0::SimdSha1Hash2            0      0.00%     87.50% # Number of instructions issued per FU type, per thread (Count)
system.cpu.statIssuedInstType_0::SimdSha256Hash            0      0.00%     87.50% # Number of instructions issued per FU type, per thread (Count)
system.cpu.statIssuedInstType_0::SimdSha256Hash2            0      0.00%     87.50% # Number of instructions issued per FU type, per thread (Count)
system.cpu.statIssuedInstType_0::SimdShaSigma2            0      0.00%     87.50% # Number of instructions issued per FU type, per thread (Count)
system.cpu.statIssuedInstType_0::SimdShaSigma3            0      0.00%     87.50% # Number of instructions issued per FU type, per thread (Count)
system.cpu.statIssuedInstType_0::SimdPredAlu            0      0.00%     87.50% # Number of instructions issued per FU type, per thread (Count)
system.cpu.statIssuedInstType_0::MemRead      1048597     12.50%    100.00% # Number of instructions issued per FU type, per thread (Count)
system.cpu.statIssuedInstType_0::MemWrite           14      0.00%    100.00% # Number of instructions issued per FU type, per thread (Count)
system.cpu.statIssuedInstType_0::FloatMemRead            0      0.00%    100.00% # Number of instructions issued per FU type, per thread (Count)
system.cpu.statIssuedInstType_0::FloatMemWrite            0      0.00%    100.00% # Number of instructions issued per FU type, per thread (Count)
system.cpu.statIssuedInstType_0::IprAccess            0      0.00%    100.00% # Number of instructions issued per FU type, per thread (Count)
system.cpu.statIssuedInstType_0::InstPrefetch            0      0.00%    100.00% # Number of instructions issued per FU type, per thread (Count)
system.cpu.statIssuedInstType_0::total        8388808                       # Number of instructions issued per FU type, per thread (Count)
system.cpu.issueRate                         2.666414                       # Inst issue rate ((Count/Cycle))
system.cpu.fuBusy                                  27                       # FU busy when requested (Count)
system.cpu.fuBusyRate                        0.000003                       # FU busy rate (busy events/executed inst) ((Count/Count))
system.cpu.intInstQueueReads                 19923747                       # Number of integer instruction queue reads (Count)
system.cpu.intInstQueueWrites                 8389000                       # Number of integer instruction queue writes (Count)
system.cpu.intInstQueueWakeupAccesses         8388784                       # Number of integer instruction queue wakeup accesses (Count)
system.cpu.fpInstQueueReads                         0                       # Number of floating instruction queue reads (Count)
system.cpu.fpInstQueueWrites                        0                       # Number of floating instruction queue writes (Count)
system.cpu.fpInstQueueWakeupAccesses                0                       # Number of floating instruction queue wakeup accesses (Count)
system.cpu.vecInstQueueReads                        0                       # Number of vector instruction queue reads (Count)
system.cpu.vecInstQueueWrites                       0                       # Number of vector instruction queue writes (Count)
system.cpu.vecInstQueueWakeupAccesses               0                       # Number of vector instruction queue wakeup accesses (Count)
system.cpu.intAluAccesses                     8388816                       # Number of integer alu accesses (Count)
system.cpu.fpAluAccesses                            0                       # Number of floating point alu accesses (Count)
system.cpu.vecAluAccesses                           0                       # Number of vector alu accesses (Count)
system.cpu.idleCycles                               0                       # Number of cycles IEW is idle (Cycle)
system.cpu.squashCycles                             8                       # Number of cycles IEW is squashing (Cycle)
system.cpu.blockCycles                             14                       # Number of cycles IEW is blocking (Cycle)
system.cpu.unblockCycles                            0                       # Number of cycles IEW is unblocking (Cycle)
system.cpu.dispatchedInsts                    8388849                       # Number of instructions dispatched to IQ (Count)
system.cpu.dispSquashedInsts                        4                       # Number of squashed instructions skipped by dispatch (Count)
system.cpu.dispLoadInsts                      1048606                       # Number of dispatched load instructions (Count)
system.cpu.dispStoreInsts                          17                       # Number of dispatched store instructions (Count)
system.cpu.dispNonSpecInsts                         3                       # Number of dispatched non-speculative instructions (Count)
system.cpu.iqFullEvents                             0                       # Number of times the IQ has become full, causing a stall (Count)
system.cpu.lsqFullEvents                            0                       # Number of times the LSQ has become full, causing a stall (Count)
system.cpu.memOrderViolationEvents                  0                       # Number of memory order violations (Count)
system.cpu.predictedTakenIncorrect                  1                       # Number of branches that were predicted taken incorrectly (Count)
system.cpu.predictedNotTakenIncorrect               9                       # Number of branches that were predicted not taken incorrectly (Count)
system.cpu.branchMispredicts                       10                       # Number of branch mispredicts detected at execute (Count)
system.cpu.numInsts                           8388790                       # Number of executed instructions (Count)
system.cpu.numLoadInsts                       1048595                       # Number of load instructions executed (Count)
system.cpu.numSquashedInsts                        15                       # Number of squashed instructions skipped in execute (Count)
system.cpu.numSwp                                   0                       # Number of swp insts executed (Count)
system.cpu.numNop                                   0                       # Number of nop insts executed (Count)
system.cpu.numRefs                            1048607                       # Number of memory reference insts executed (Count)
system.cpu.numBranches                        1048597                       # Number of branches executed (Count)
system.cpu.numStoreInsts                           12                       # Number of stores executed (Count)
system.cpu.numRate                           2.666408                       # Inst execution rate ((Count/Cycle))
system.cpu.instsToCommit                      8388788                       # Cumulative count of insts sent to commit (Count)
system.cpu.writebackCount                     8388784                       # Cumulative count of insts written-back (Count)
system.cpu.producerInst                       7340119                       # Number of instructions producing a value (Count)
system.cpu.consumerInst                       8738276                       # Number of instructions consuming a value (Count)
system.cpu.wbRate                            2.666406                       # Insts written-back per cycle ((Count/Cycle))
system.cpu.wbFanout                          0.839996                       # Average fanout of values written-back ((Count/Count))
system.cpu.committedInsts                     4194313                       # Number of Instructions Simulated (Count)
system.cpu.committedOps                       8388625                       # Number of Ops (including micro ops) Simulated (Count)
system.cpu.cpi                               0.750087                       # CPI: Cycles Per Instruction ((Cycle/Count))
system.cpu.totalCpi                          0.750087                       # CPI: Total CPI of All Threads ((Cycle/Count))
system.cpu.ipc                               1.333178                       # IPC: Instructions Per Cycle ((Count/Cycle))
system.cpu.totalIpc                          1.333178                       # IPC: Total IPC of All Threads ((Count/Cycle))
system.cpu.intRegfileReads                    8388809                       # Number of integer regfile reads (Count)
system.cpu.intRegfileWrites                   7340162                       # Number of integer regfile writes (Count)
system.cpu.ccRegfileReads                     5242917                       # number of cc regfile reads (Count)
system.cpu.ccRegfileWrites                    4194348                       # number of cc regfile writes (Count)
system.cpu.miscRegfileReads                   3145808                       # number of misc regfile reads (Count)
system.cpu.MemDepUnit__0.insertedLoads        1048606                       # Number of loads inserted to the mem dependence unit. (Count)
system.cpu.MemDepUnit__0.insertedStores            17                       # Number of stores inserted to the mem dependence unit. (Count)
system.cpu.MemDepUnit__0.conflictingLoads            0                       # Number of conflicting loads. (Count)
system.cpu.MemDepUnit__0.conflictingStores            0                       # Number of conflicting stores. (Count)
system.cpu.MemDepUnit__1.insertedLoads              0                       # Number of loads inserted to the mem dependence unit. (Count)
system.cpu.MemDepUnit__1.insertedStores             0                       # Number of stores inserted to the mem dependence unit. (Count)
system.cpu.MemDepUnit__1.conflictingLoads            0                       # Number of conflicting loads. (Count)
system.cpu.MemDepUnit__1.conflictingStores            0                       # Number of conflicting stores. (Count)
system.cpu.MemDepUnit__2.insertedLoads              0                       # Number of loads inserted to the mem dependence unit. (Count)
system.cpu.MemDepUnit__2.insertedStores             0                       # Number of stores inserted to the mem dependence unit. (Count)
system.cpu.MemDepUnit__2.conflictingLoads            0                       # Number of conflicting loads. (Count)
system.cpu.MemDepUnit__2.conflictingStores            0                       # Number of conflicting stores. (Count)
system.cpu.MemDepUnit__3.insertedLoads              0                       # Number of loads inserted to the mem dependence unit. (Count)
system.cpu.MemDepUnit__3.insertedStores             0                       # Number of stores inserted to the mem dependence unit. (Count)
system.cpu.MemDepUnit__3.conflictingLoads            0                       # Number of conflicting loads. (Count)
system.cpu.MemDepUnit__3.conflictingStores            0                       # Number of conflicting stores. (Count)
system.cpu.branchPred.lookups                 1048628                       # Number of BP lookups (Count)
system.cpu.branchPred.condPredicted           1048590                       # Number of conditional branches predicted (Count)
system.cpu.branchPred.condIncorrect                10                       # Number of conditional branches incorrect (Count)
system.cpu.branchPred.BTBLookups              1048595                       # Number of BTB lookups (Count)
system.cpu.branchPred.BTBHits                 1048590                       # Number of BTB hits (Count)
system.cpu.branchPred.BTBHitRatio            0.999995                       # BTB Hit Ratio (Ratio)
system.cpu.branchPred.RASUsed                       8                       # Number of times the RAS was used to get a target. (Count)
system.cpu.branchPred.RASIncorrect                  0                       # Number of incorrect RAS predictions. (Count)
system.cpu.branchPred.indirectLookups              16                       # Number of indirect predictor lookups. (Count)
system.cpu.branchPred.indirectHits                  2                       # Number of indirect target hits. (Count)
system.cpu.branchPred.indirectMisses               14                       # Number of indirect misses. (Count)
system.cpu.branchPred.indirectMispredicted            3                       # Number of mispredicted indirect branches. (Count)
system.cpu.commit.commitSquashedInsts              49                       # The number of squashed insts skipped by commit (Count)
system.cpu.commit.commitNonSpecStalls               1                       # The number of times commit has been forced to stall to communicate backwards (Count)
system.cpu.commit.branchMispredicts                 8                       # The number of times a branch was mispredicted (Count)
system.cpu.commit.numCommittedDist::samples      3146079                       # Number of insts commited each cycle (Count)
system.cpu.commit.numCommittedDist::mean     2.666375                       # Number of insts commited each cycle (Count)
system.cpu.commit.numCommittedDist::stdev     3.771125                       # Number of insts commited each cycle (Count)
system.cpu.commit.numCommittedDist::underflows            0      0.00%      0.00% # Number of insts commited each cycle (Count)
system.cpu.commit.numCommittedDist::0         2097490     66.67%     66.67% # Number of insts commited each cycle (Count)
system.cpu.commit.numCommittedDist::1               7      0.00%     66.67% # Number of insts commited each cycle (Count)
system.cpu.commit.numCommittedDist::2               0      0.00%     66.67% # Number of insts commited each cycle (Count)
system.cpu.commit.numCommittedDist::3               4      0.00%     66.67% # Number of insts commited each cycle (Count)
system.cpu.commit.numCommittedDist::4               0      0.00%     66.67% # Number of insts commited each cycle (Count)
system.cpu.commit.numCommittedDist::5               4      0.00%     66.67% # Number of insts commited each cycle (Count)
system.cpu.commit.numCommittedDist::6               3      0.00%     66.67% # Number of insts commited each cycle (Count)
system.cpu.commit.numCommittedDist::7               0      0.00%     66.67% # Number of insts commited each cycle (Count)
system.cpu.commit.numCommittedDist::8         1048571     33.33%    100.00% # Number of insts commited each cycle (Count)
system.cpu.commit.numCommittedDist::overflows            0      0.00%    100.00% # Number of insts commited each cycle (Count)
system.cpu.commit.numCommittedDist::min_value            0                       # Number of insts commited each cycle (Count)
system.cpu.commit.numCommittedDist::max_value            8                       # Number of insts commited each cycle (Count)
system.cpu.commit.numCommittedDist::total      3146079                       # Number of insts commited each cycle (Count)
system.cpu.commit.instsCommitted              4194313                       # Number of instructions committed (Count)
system.cpu.commit.opsCommitted                8388625                       # Number of ops (including micro ops) committed (Count)
system.cpu.commit.memRefs                     1048578                       # Number of memory references committed (Count)
system.cpu.commit.loads                       1048577                       # Number of loads committed (Count)
system.cpu.commit.amos                              0                       # Number of atomic instructions committed (Count)
system.cpu.commit.membars                           0                       # Number of memory barriers committed (Count)
system.cpu.commit.branches                    1048579                       # Number of branches committed (Count)
system.cpu.commit.vectorInstructions                0                       # Number of committed Vector instructions. (Count)
system.cpu.commit.floating                          0                       # Number of committed floating point instructions. (Count)
system.cpu.commit.integer                     8388623                       # Number of committed integer instructions. (Count)
system.cpu.commit.functionCalls                     1                       # Number of function calls committed. (Count)
system.cpu.commit.committedInstType_0::No_OpClass            1      0.00%      0.00% # Class of committed instruction (Count)
system.cpu.commit.committedInstType_0::IntAlu      7340046     87.50%     87.50% # Class of committed instruction (Count)
system.cpu.commit.committedInstType_0::IntMult            0      0.00%     87.50% # Class of committed instruction (Count)
system.cpu.commit.committedInstType_0::IntDiv            0      0.00%     87.50% # Class of committed instruction (Count)
system.cpu.commit.committedInstType_0::FloatAdd            0      0.00%     87.50% # Class of committed instruction (Count)
system.cpu.commit.committedInstType_0::FloatCmp            0      0.00%     87.50% # Class of committed instruction (Count)
system.cpu.commit.committedInstType_0::FloatCvt            0      0.00%     87.50% # Class of committed instruction (Count)
system.cpu.commit.committedInstType_0::FloatMult            0      0.00%     87.50% # Class of committed instruction (Count)
system.cpu.commit.committedInstType_0::FloatMultAcc            0      0.00%     87.50% # Class of committed instruction (Count)
system.cpu.commit.committedInstType_0::FloatDiv            0      0.00%     87.50% # Class of committed instruction (Count)
system.cpu.commit.committedInstType_0::FloatMisc            0      0.00%     87.50% # Class of committed instruction (Count)
system.cpu.commit.committedInstType_0::FloatSqrt            0      0.00%     87.50% # Class of committed instruction (Count)
system.cpu.commit.committedInstType_0::SimdAdd            0      0.00%     87.50% # Class of committed instruction (Count)
system.cpu.commit.committedInstType_0::SimdAddAcc            0      0.00%     87.50% # Class of committed instruction (Count)
system.cpu.commit.committedInstType_0::SimdAlu            0      0.00%     87.50% # Class of committed instruction (Count)
system.cpu.commit.committedInstType_0::SimdCmp            0      0.00%     87.50% # Class of committed instruction (Count)
system.cpu.commit.committedInstType_0::SimdCvt            0      0.00%     87.50% # Class of committed instruction (Count)
system.cpu.commit.committedInstType_0::SimdMisc            0      0.00%     87.50% # Class of committed instruction (Count)
system.cpu.commit.committedInstType_0::SimdMult            0      0.00%     87.50% # Class of committed instruction (Count)
system.cpu.commit.committedInstType_0::SimdMultAcc            0      0.00%     87.50% # Class of committed instruction (Count)
system.cpu.commit.committedInstType_0::SimdShift            0      0.00%     87.50% # Class of committed instruction (Count)
system.cpu.commit.committedInstType_0::SimdShiftAcc            0      0.00%     87.50% # Class of committed instruction (Count)
system.cpu.commit.committedInstType_0::SimdDiv            0      0.00%     87.50% # Class of committed instruction (Count)
system.cpu.commit.committedInstType_0::SimdSqrt            0      0.00%     87.50% # Class of committed instruction (Count)
system.cpu.commit.committedInstType_0::SimdFloatAdd            0      0.00%     87.50% # Class of committed instruction (Count)
system.cpu.commit.committedInstType_0::SimdFloatAlu            0      0.00%     87.50% # Class of committed instruction (Count)
system.cpu.commit.committedInstType_0::SimdFloatCmp            0      0.00%     87.50% # Class of committed instruction (Count)
system.cpu.commit.committedInstType_0::SimdFloatCvt            0      0.00%     87.50% # Class of committed instruction (Count)
system.cpu.commit.committedInstType_0::SimdFloatDiv            0      0.00%     87.50% # Class of committed instruction (Count)
system.cpu.commit.committedInstType_0::SimdFloatMisc            0      0.00%     87.50% # Class of committed instruction (Count)
system.cpu.commit.committedInstType_0::SimdFloatMult            0      0.00%     87.50% # Class of committed instruction (Count)
system.cpu.commit.committedInstType_0::SimdFloatMultAcc            0      0.00%     87.50% # Class of committed instruction (Count)
system.cpu.commit.committedInstType_0::SimdFloatSqrt            0      0.00%     87.50% # Class of committed instruction (Count)
system.cpu.commit.committedInstType_0::SimdReduceAdd            0      0.00%     87.50% # Class of committed instruction (Count)
system.cpu.commit.committedInstType_0::SimdReduceAlu            0      0.00%     87.50% # Class of committed instruction (Count)
system.cpu.commit.committedInstType_0::SimdReduceCmp            0      0.00%     87.50% # Class of committed instruction (Count)
system.cpu.commit.committedInstType_0::SimdFloatReduceAdd            0      0.00%     87.50% # Class of committed instruction (Count)
system.cpu.commit.committedInstType_0::SimdFloatReduceCmp            0      0.00%     87.50% # Class of committed instruction (Count)
system.cpu.commit.committedInstType_0::SimdAes            0      0.00%     87.50% # Class of committed instruction (Count)
system.cpu.commit.committedInstType_0::SimdAesMix            0      0.00%     87.50% # Class of committed instruction (Count)
system.cpu.commit.committedInstType_0::SimdSha1Hash            0      0.00%     87.50% # Class of committed instruction (Count)
system.cpu.commit.committedInstType_0::SimdSha1Hash2            0      0.00%     87.50% # Class of committed instruction (Count)
system.cpu.commit.committedInstType_0::SimdSha256Hash            0      0.00%     87.50% # Class of committed instruction (Count)
system.cpu.commit.committedInstType_0::SimdSha256Hash2            0      0.00%     87.50% # Class of committed instruction (Count)
system.cpu.commit.committedInstType_0::SimdShaSigma2            0      0.00%     87.50% # Class of committed instruction (Count)
system.cpu.commit.committedInstType_0::SimdShaSigma3            0      0.00%     87.50% # Class of committed instruction (Count)
system.cpu.commit.committedInstType_0::SimdPredAlu            0      0.00%     87.50% # Class of committed instruction (Count)
system.cpu.commit.committedInstType_0::MemRead      1048577     12.50%    100.00% # Class of committed instruction (Count)
system.cpu.commit.committedInstType_0::MemWrite            1      0.00%    100.00% # Class of committed instruction (Count)
system.cpu.commit.committedInstType_0::FloatMemRead            0      0.00%    100.00% # Class of committed instruction (Count)
system.cpu.commit.committedInstType_0::FloatMemWrite            0      0.00%    100.00% # Class of committed instruction (Count)
system.cpu.commit.committedInstType_0::IprAccess            0      0.00%    100.00% # Class of committed instruction (Count)
system.cpu.commit.committedInstType_0::InstPrefetch            0      0.00%    100.00% # Class of committed instruction (Count)
system.cpu.commit.committedInstType_0::total      8388625                       # Class of committed instruction (Count)
system.cpu.commit.commitEligibleSamples       1048571                       # number cycles where commit BW limit reached (Cycle)
system.cpu.decode.idleCycles                   349551                       # Number of cycles decode is idle (Cycle)
system.cpu.decode.blockedCycles               1747918                       # Number of cycles decode is blocked (Cycle)
system.cpu.decode.runCycles                        71                       # Number of cycles decode is running (Cycle)
system.cpu.decode.unblockCycles               1048553                       # Number of cycles decode is unblocking (Cycle)
system.cpu.decode.squashCycles                      8                       # Number of cycles decode is squashing (Cycle)
system.cpu.decode.branchResolved              1048587                       # Number of times decode resolved a branch (Count)
system.cpu.decode.branchMispred                     2                       # Number of times decode detected a branch misprediction (Count)
system.cpu.decode.decodedInsts                8388901                       # Number of instructions handled by decode (Count)
system.cpu.decode.squashedInsts                    16                       # Number of squashed instructions handled by decode (Count)
system.cpu.fetch.icacheStallCycles                 41                       # Number of cycles fetch is stalled on an Icache miss (Cycle)
system.cpu.fetch.insts                        4194488                       # Number of instructions fetch has processed (Count)
system.cpu.fetch.branches                     1048628                       # Number of branches that fetch encountered (Count)
system.cpu.fetch.predictedBranches            1048600                       # Number of branches that fetch has predicted taken (Count)
system.cpu.fetch.cycles                       3146050                       # Number of cycles fetch has run and was not squashing or blocked (Cycle)
system.cpu.fetch.squashCycles                      20                       # Number of cycles fetch has spent squashing (Cycle)
system.cpu.fetch.cacheLines                        33                       # Number of cache lines fetched (Count)
system.cpu.fetch.nisnDist::samples            3146101                       # Number of instructions fetched each cycle (Total) (Count)
system.cpu.fetch.nisnDist::mean              2.666475                       # Number of instructions fetched each cycle (Total) (Count)
system.cpu.fetch.nisnDist::stdev             3.771156                       # Number of instructions fetched each cycle (Total) (Count)
system.cpu.fetch.nisnDist::underflows               0      0.00%      0.00% # Number of instructions fetched each cycle (Total) (Count)
system.cpu.fetch.nisnDist::0                  2097462     66.67%     66.67% # Number of instructions fetched each cycle (Total) (Count)
system.cpu.fetch.nisnDist::1                        6      0.00%     66.67% # Number of instructions fetched each cycle (Total) (Count)
system.cpu.fetch.nisnDist::2                        2      0.00%     66.67% # Number of instructions fetched each cycle (Total) (Count)
system.cpu.fetch.nisnDist::3                        3      0.00%     66.67% # Number of instructions fetched each cycle (Total) (Count)
system.cpu.fetch.nisnDist::4                        7      0.00%     66.67% # Number of instructions fetched each cycle (Total) (Count)
system.cpu.fetch.nisnDist::5                        3      0.00%     66.67% # Number of instructions fetched each cycle (Total) (Count)
system.cpu.fetch.nisnDist::6                        1      0.00%     66.67% # Number of instructions fetched each cycle (Total) (Count)
system.cpu.fetch.nisnDist::7                        5      0.00%     66.67% # Number of instructions fetched each cycle (Total) (Count)
system.cpu.fetch.nisnDist::8                  1048612     33.33%    100.00% # Number of instructions fetched each cycle (Total) (Count)
system.cpu.fetch.nisnDist::overflows                0      0.00%    100.00% # Number of instructions fetched each cycle (Total) (Count)
system.cpu.fetch.nisnDist::min_value                0                       # Number of instructions fetched each cycle (Total) (Count)
system.cpu.fetch.nisnDist::max_value                8                       # Number of instructions fetched each cycle (Total) (Count)
system.cpu.fetch.nisnDist::total              3146101                       # Number of instructions fetched each cycle (Total) (Count)
system.cpu.fetch.branchRate                  0.333310                       # Number of branch fetches per cycle (Ratio)
system.cpu.fetch.rate                        1.333234                       # Number of inst fetches per cycle ((Count/Cycle))
system.cpu.interrupts.clk_domain.clock          16000                       # Clock period in ticks (Tick)
system.cpu.lsq0.forwLoads                           5                       # Number of loads that had data forwarded from stores (Count)
system.cpu.lsq0.squashedLoads                      17                       # Number of loads squashed (Count)
system.cpu.lsq0.ignoredResponses                    0                       # Number of memory responses ignored because the instruction is squashed (Count)
[...]
system.mem_ctrl.rdPerTurnAround::stdev       0.321054                       # Reads before turning the bus around for writes (Count)
system.mem_ctrl.rdPerTurnAround::11                 2      0.00%      0.00% # Reads before turning the bus around for writes (Count)
system.mem_ctrl.rdPerTurnAround::13                22      0.01%      0.01% # Reads before turning the bus around for writes (Count)
system.mem_ctrl.rdPerTurnAround::14               795      0.34%      0.35% # Reads before turning the bus around for writes (Count)
system.mem_ctrl.rdPerTurnAround::15             20248      8.71%      9.06% # Reads before turning the bus around for writes (Count)
system.mem_ctrl.rdPerTurnAround::16            209419     90.09%     99.15% # Reads before turning the bus around for writes (Count)
system.mem_ctrl.rdPerTurnAround::17              1974      0.85%    100.00% # Reads before turning the bus around for writes (Count)
system.mem_ctrl.rdPerTurnAround::18                 5      0.00%    100.00% # Reads before turning the bus around for writes (Count)
system.mem_ctrl.rdPerTurnAround::total         232465                       # Reads before turning the bus around for writes (Count)
system.mem_ctrl.wrPerTurnAround::samples       232465                       # Writes before turning the bus around for reads (Count)
system.mem_ctrl.wrPerTurnAround::mean       16.009120                       # Writes before turning the bus around for reads (Count)
system.mem_ctrl.wrPerTurnAround::gmean      16.008819                       # Writes before turning the bus around for reads (Count)
system.mem_ctrl.wrPerTurnAround::stdev       0.100601                       # Writes before turning the bus around for reads (Count)
system.mem_ctrl.wrPerTurnAround::16            230454     99.13%     99.13% # Writes before turning the bus around for reads (Count)
system.mem_ctrl.wrPerTurnAround::17              1919      0.83%     99.96% # Writes before turning the bus around for reads (Count)
system.mem_ctrl.wrPerTurnAround::18                75      0.03%     99.99% # Writes before turning the bus around for reads (Count)
system.mem_ctrl.wrPerTurnAround::19                17      0.01%    100.00% # Writes before turning the bus around for reads (Count)
system.mem_ctrl.wrPerTurnAround::total         232465                       # Writes before turning the bus around for reads (Count)
system.mem_ctrl.bytesReadWrQ                  1413376                       # Total number of bytes read from write queue (Byte)
system.mem_ctrl.bytesReadSys                238182208                       # Total read bytes from the system interface side (Byte)
system.mem_ctrl.bytesWrittenSys             238182208                       # Total written bytes from the system interface side (Byte)
system.mem_ctrl.avgRdBWSys               791001159.00621128                       # Average system read bandwidth in Byte/s ((Byte/Second))
system.mem_ctrl.avgWrBWSys               791001159.00621128                       # Average system write bandwidth in Byte/s ((Byte/Second))
system.mem_ctrl.totGap                   301114902000                       # Total gap between requests (Tick)
system.mem_ctrl.avgGap                       40455.07                       # Average gap between requests ((Tick/Count))
system.mem_ctrl.requestorReadBytes::caches.controllers1    236768832                       # Per-requestor bytes read from memory (Byte)
system.mem_ctrl.requestorWriteBytes::caches.controllers1    238179840                       # Per-requestor bytes write to memory (Byte)
system.mem_ctrl.requestorReadRate::caches.controllers1 786307348.903856515884                       # Per-requestor bytes read from memory rate ((Byte/Second))
system.mem_ctrl.requestorWriteRate::caches.controllers1 790993294.897635579109                       # Per-requestor bytes write to memory rate ((Byte/Second))
system.mem_ctrl.requestorReadAccesses::caches.controllers1      3721597                       # Per-requestor read serviced memory accesses (Count)
system.mem_ctrl.requestorWriteAccesses::caches.controllers1      3721597                       # Per-requestor write serviced memory accesses (Count)
system.mem_ctrl.requestorReadTotalLat::caches.controllers1 149272504750                       # Per-requestor read total memory access latency (Tick)
system.mem_ctrl.requestorWriteTotalLat::caches.controllers1 7456757223000                       # Per-requestor write total memory access latency (Tick)
system.mem_ctrl.requestorReadAvgLat::caches.controllers1     40109.80                       # Per-requestor read average memory access latency ((Tick/Count))
system.mem_ctrl.requestorWriteAvgLat::caches.controllers1   2003644.46                       # Per-requestor write average memory access latency ((Tick/Count))
system.mem_ctrl.dram.bytesRead::caches.controllers1    238182208                       # Number of bytes read from this memory (Byte)
system.mem_ctrl.dram.bytesRead::total       238182208                       # Number of bytes read from this memory (Byte)
system.mem_ctrl.dram.bytesWritten::caches.controllers1    238182208                       # Number of bytes written to this memory (Byte)
system.mem_ctrl.dram.bytesWritten::total    238182208                       # Number of bytes written to this memory (Byte)
system.mem_ctrl.dram.numReads::caches.controllers1      3721597                       # Number of read requests responded to by this memory (Count)
system.mem_ctrl.dram.numReads::total          3721597                       # Number of read requests responded to by this memory (Count)
system.mem_ctrl.dram.numWrites::caches.controllers1      3721597                       # Number of write requests responded to by this memory (Count)
system.mem_ctrl.dram.numWrites::total         3721597                       # Number of write requests responded to by this memory (Count)
system.mem_ctrl.dram.bwRead::caches.controllers1    791001159                       # Total read bandwidth from this memory ((Byte/Second))
system.mem_ctrl.dram.bwRead::total          791001159                       # Total read bandwidth from this memory ((Byte/Second))
system.mem_ctrl.dram.bwWrite::caches.controllers1    791001159                       # Write bandwidth from this memory ((Byte/Second))
system.mem_ctrl.dram.bwWrite::total         791001159                       # Write bandwidth from this memory ((Byte/Second))
system.mem_ctrl.dram.bwTotal::caches.controllers1   1582002318                       # Total bandwidth to/from this memory ((Byte/Second))
system.mem_ctrl.dram.bwTotal::total        1582002318                       # Total bandwidth to/from this memory ((Byte/Second))
system.mem_ctrl.dram.readBursts               3699513                       # Number of DRAM read bursts (Count)
system.mem_ctrl.dram.writeBursts              3721560                       # Number of DRAM write bursts (Count)
system.mem_ctrl.dram.perBankRdBursts::0        234468                       # Per bank write bursts (Count)
system.mem_ctrl.dram.perBankRdBursts::1        230860                       # Per bank write bursts (Count)
system.mem_ctrl.dram.perBankRdBursts::2        232377                       # Per bank write bursts (Count)
system.mem_ctrl.dram.perBankRdBursts::3        231595                       # Per bank write bursts (Count)
system.mem_ctrl.dram.perBankRdBursts::4        229196                       # Per bank write bursts (Count)
system.mem_ctrl.dram.perBankRdBursts::5        229076                       # Per bank write bursts (Count)
system.mem_ctrl.dram.perBankRdBursts::6        229682                       # Per bank write bursts (Count)
system.mem_ctrl.dram.perBankRdBursts::7        230911                       # Per bank write bursts (Count)
system.mem_ctrl.dram.perBankRdBursts::8        230401                       # Per bank write bursts (Count)
system.mem_ctrl.dram.perBankRdBursts::9        287300                       # Per bank write bursts (Count)
system.mem_ctrl.dram.perBankRdBursts::10       175341                       # Per bank write bursts (Count)
system.mem_ctrl.dram.perBankRdBursts::11       231655                       # Per bank write bursts (Count)
system.mem_ctrl.dram.perBankRdBursts::12       228865                       # Per bank write bursts (Count)
system.mem_ctrl.dram.perBankRdBursts::13       233046                       # Per bank write bursts (Count)
system.mem_ctrl.dram.perBankRdBursts::14       232227                       # Per bank write bursts (Count)
system.mem_ctrl.dram.perBankRdBursts::15       232513                       # Per bank write bursts (Count)
system.mem_ctrl.dram.perBankWrBursts::0        235959                       # Per bank write bursts (Count)
system.mem_ctrl.dram.perBankWrBursts::1        231808                       # Per bank write bursts (Count)
system.mem_ctrl.dram.perBankWrBursts::2        233702                       # Per bank write bursts (Count)
system.mem_ctrl.dram.perBankWrBursts::3        233241                       # Per bank write bursts (Count)
system.mem_ctrl.dram.perBankWrBursts::4        230510                       # Per bank write bursts (Count)
system.mem_ctrl.dram.perBankWrBursts::5        230444                       # Per bank write bursts (Count)
system.mem_ctrl.dram.perBankWrBursts::6        230788                       # Per bank write bursts (Count)
system.mem_ctrl.dram.perBankWrBursts::7        232251                       # Per bank write bursts (Count)
system.mem_ctrl.dram.perBankWrBursts::8        231378                       # Per bank write bursts (Count)
system.mem_ctrl.dram.perBankWrBursts::9        289585                       # Per bank write bursts (Count)
system.mem_ctrl.dram.perBankWrBursts::10       176388                       # Per bank write bursts (Count)
system.mem_ctrl.dram.perBankWrBursts::11       232896                       # Per bank write bursts (Count)
system.mem_ctrl.dram.perBankWrBursts::12       230206                       # Per bank write bursts (Count)
system.mem_ctrl.dram.perBankWrBursts::13       234713                       # Per bank write bursts (Count)
system.mem_ctrl.dram.perBankWrBursts::14       233849                       # Per bank write bursts (Count)
system.mem_ctrl.dram.perBankWrBursts::15       233842                       # Per bank write bursts (Count)
system.mem_ctrl.dram.totQLat              79906636000                       # Total ticks spent queuing (Tick)
system.mem_ctrl.dram.totBusLat            18497565000                       # Total ticks spent in databus transfers (Tick)
system.mem_ctrl.dram.totMemAccLat        149272504750                       # Total ticks spent from burst creation until serviced by the DRAM (Tick)
system.mem_ctrl.dram.avgQLat                 21599.23                       # Average queueing delay per DRAM burst ((Tick/Count))
system.mem_ctrl.dram.avgBusLat                5000.00                       # Average bus latency per DRAM burst ((Tick/Count))
system.mem_ctrl.dram.avgMemAccLat            40349.23                       # Average memory access latency per DRAM burst ((Tick/Count))
system.mem_ctrl.dram.readRowHits              1335409                       # Number of row buffer hits during reads (Count)
system.mem_ctrl.dram.writeRowHits             2846951                       # Number of row buffer hits during writes (Count)
system.mem_ctrl.dram.readRowHitRate             36.10                       # Row buffer hit rate for reads (Ratio)
system.mem_ctrl.dram.writeRowHitRate            76.50                       # Row buffer hit rate for writes (Ratio)
system.mem_ctrl.dram.bytesPerActivate::samples      3238714                       # Bytes accessed per row activation (Byte)
system.mem_ctrl.dram.bytesPerActivate::mean   146.647243                       # Bytes accessed per row activation (Byte)
system.mem_ctrl.dram.bytesPerActivate::gmean   121.221376                       # Bytes accessed per row activation (Byte)
system.mem_ctrl.dram.bytesPerActivate::stdev    97.760130                       # Bytes accessed per row activation (Byte)
system.mem_ctrl.dram.bytesPerActivate::0-127      1301271     40.18%     40.18% # Bytes accessed per row activation (Byte)
system.mem_ctrl.dram.bytesPerActivate::128-255      1350083     41.69%     81.86% # Bytes accessed per row activation (Byte)
system.mem_ctrl.dram.bytesPerActivate::256-383       446974     13.80%     95.67% # Bytes accessed per row activation (Byte)
system.mem_ctrl.dram.bytesPerActivate::384-511       111108      3.43%     99.10% # Bytes accessed per row activation (Byte)
system.mem_ctrl.dram.bytesPerActivate::512-639        23905      0.74%     99.83% # Bytes accessed per row activation (Byte)
system.mem_ctrl.dram.bytesPerActivate::640-767         4559      0.14%     99.97% # Bytes accessed per row activation (Byte)
system.mem_ctrl.dram.bytesPerActivate::768-895          716      0.02%    100.00% # Bytes accessed per row activation (Byte)
system.mem_ctrl.dram.bytesPerActivate::896-1023           88      0.00%    100.00% # Bytes accessed per row activation (Byte)
system.mem_ctrl.dram.bytesPerActivate::1024-1151           10      0.00%    100.00% # Bytes accessed per row activation (Byte)
system.mem_ctrl.dram.bytesPerActivate::total      3238714                       # Bytes accessed per row activation (Byte)
system.mem_ctrl.dram.bytesRead              236768832                       # Total number of bytes read from DRAM (Byte)
system.mem_ctrl.dram.bytesWritten           238179840                       # Total number of bytes written to DRAM (Byte)
system.mem_ctrl.dram.avgRdBW               786.307349                       # Average DRAM read bandwidth in MiBytes/s ((Byte/Second))
system.mem_ctrl.dram.avgWrBW               790.993295                       # Average DRAM write bandwidth in MiBytes/s ((Byte/Second))
system.mem_ctrl.dram.peakBW                  12800.00                       # Theoretical peak bandwidth in MiByte/s ((Byte/Second))
system.mem_ctrl.dram.busUtil                    12.32                       # Data bus utilization in percentage (Ratio)
system.mem_ctrl.dram.busUtilRead                 6.14                       # Data bus utilization in percentage for reads (Ratio)
system.mem_ctrl.dram.busUtilWrite                6.18                       # Data bus utilization in percentage for writes (Ratio)
system.mem_ctrl.dram.pageHitRate                56.36                       # Row buffer hit rate, read and write combined (Ratio)
system.mem_ctrl.dram.power_state.pwrStateResidencyTicks::UNDEFINED 308393404000                       # Cumulative time (in ticks) in various power states (Tick)
system.mem_ctrl.dram.rank0.actEnergy      11386300800                       # Energy for activate commands per rank (pJ) (Joule)
system.mem_ctrl.dram.rank0.preEnergy       6051939630                       # Energy for precharge commands per rank (pJ) (Joule)
system.mem_ctrl.dram.rank0.readEnergy     13196033760                       # Energy for read commands per rank (pJ) (Joule)
system.mem_ctrl.dram.rank0.writeEnergy     9702481860                       # Energy for write commands per rank (pJ) (Joule)
system.mem_ctrl.dram.rank0.refreshEnergy 23769358080.000004                       # Energy for refresh commands per rank (pJ) (Joule)
system.mem_ctrl.dram.rank0.actBackEnergy 135581150190                       # Energy for active background per rank (pJ) (Joule)
system.mem_ctrl.dram.rank0.preBackEnergy   1455072960                       # Energy for precharge background per rank (pJ) (Joule)
system.mem_ctrl.dram.rank0.actPowerDownEnergy            0                       # Energy for active power-down per rank (pJ) (Joule)
system.mem_ctrl.dram.rank0.prePowerDownEnergy            0                       # Energy for precharge power-down per rank (pJ) (Joule)
system.mem_ctrl.dram.rank0.selfRefreshEnergy            0                       # Energy for self refresh per rank (pJ) (Joule)
system.mem_ctrl.dram.rank0.totalEnergy   201142337280                       # Total energy per rank (pJ) (Joule)
system.mem_ctrl.dram.rank0.averagePower    667.992052                       # Core power per rank (mW) (Watt)
system.mem_ctrl.dram.rank0.totalIdleTime            0                       # Total Idle time Per DRAM Rank (Tick)
system.mem_ctrl.dram.rank0.pwrStateTime::IDLE   2678925250                       # Time in different power states (Tick)
system.mem_ctrl.dram.rank0.pwrStateTime::REF  10054720000                       # Time in different power states (Tick)
system.mem_ctrl.dram.rank0.pwrStateTime::SREF            0                       # Time in different power states (Tick)
system.mem_ctrl.dram.rank0.pwrStateTime::PRE_PDN            0                       # Time in different power states (Tick)
system.mem_ctrl.dram.rank0.pwrStateTime::ACT 288382691250                       # Time in different power states (Tick)
system.mem_ctrl.dram.rank0.pwrStateTime::ACT_PDN            0                       # Time in different power states (Tick)
system.mem_ctrl.dram.rank1.actEnergy      11738359920                       # Energy for activate commands per rank (pJ) (Joule)
system.mem_ctrl.dram.rank1.preEnergy       6239074875                       # Energy for precharge commands per rank (pJ) (Joule)
system.mem_ctrl.dram.rank1.readEnergy     13218710400                       # Energy for read commands per rank (pJ) (Joule)
system.mem_ctrl.dram.rank1.writeEnergy     9724228380                       # Energy for write commands per rank (pJ) (Joule)
system.mem_ctrl.dram.rank1.refreshEnergy 23769358080.000004                       # Energy for refresh commands per rank (pJ) (Joule)
system.mem_ctrl.dram.rank1.actBackEnergy 135568963590                       # Energy for active background per rank (pJ) (Joule)
system.mem_ctrl.dram.rank1.preBackEnergy   1465354080                       # Energy for precharge background per rank (pJ) (Joule)
system.mem_ctrl.dram.rank1.actPowerDownEnergy            0                       # Energy for active power-down per rank (pJ) (Joule)
system.mem_ctrl.dram.rank1.prePowerDownEnergy            0                       # Energy for precharge power-down per rank (pJ) (Joule)
system.mem_ctrl.dram.rank1.selfRefreshEnergy            0                       # Energy for self refresh per rank (pJ) (Joule)
system.mem_ctrl.dram.rank1.totalEnergy   201724049325                       # Total energy per rank (pJ) (Joule)
system.mem_ctrl.dram.rank1.averagePower    669.923913                       # Core power per rank (mW) (Watt)
system.mem_ctrl.dram.rank1.totalIdleTime            0                       # Total Idle time Per DRAM Rank (Tick)
system.mem_ctrl.dram.rank1.pwrStateTime::IDLE   2699455750                       # Time in different power states (Tick)
system.mem_ctrl.dram.rank1.pwrStateTime::REF  10054720000                       # Time in different power states (Tick)
system.mem_ctrl.dram.rank1.pwrStateTime::SREF            0                       # Time in different power states (Tick)
system.mem_ctrl.dram.rank1.pwrStateTime::PRE_PDN            0                       # Time in different power states (Tick)
system.mem_ctrl.dram.rank1.pwrStateTime::ACT 288362208500                       # Time in different power states (Tick)
system.mem_ctrl.dram.rank1.pwrStateTime::ACT_PDN            0                       # Time in different power states (Tick)
system.mem_ctrl.power_state.pwrStateResidencyTicks::UNDEFINED 308393404000                       # Cumulative time (in ticks) in various power states (Tick)
system.workload.inst.arm                            0                       # number of arm instructions executed (Count)
system.workload.inst.quiesce                        0                       # number of quiesce instructions executed (Count)

---------- End Simulation Statistics   ----------
