
---------- Begin Simulation Statistics ----------
simSeconds                                   0.051230                       # Number of seconds simulated (Second)
simTicks                                  51229601000                       # Number of ticks simulated (Tick)
finalTick                                 51229601000                       # Number of ticks from beginning of simulation (restored from checkpoints and never reset) (Tick)
simFreq                                  1000000000000                       # The number of ticks per simulated second ((Tick/Second))
hostSeconds                                    338.80                       # Real time elapsed on the host (Second)
hostTickRate                                151211124                       # The number of ticks simulated per host second (ticks/s) ((Tick/Second))
hostMemory                                    9639680                       # Number of bytes of host memory used (Byte)
simInsts                                     46698355                       # Number of instructions simulated (Count)
simOps                                       83201955                       # Number of ops (including micro ops) simulated (Count)
hostInstRate                                   137836                       # Simulator instruction rate (inst/s) ((Count/Second))
hostOpRate                                     245582                       # Simulator op (including micro ops) rate (op/s) ((Count/Second))
system.caches.delayHistogram::bucket_size            2                       # delay histogram for all message (Unspecified)
system.caches.delayHistogram::max_bucket           19                       # delay histogram for all message (Unspecified)
system.caches.delayHistogram::samples           72170                       # delay histogram for all message (Unspecified)
system.caches.delayHistogram::mean           0.025772                       # delay histogram for all message (Unspecified)
system.caches.delayHistogram::stdev          0.400502                       # delay histogram for all message (Unspecified)
system.caches.delayHistogram             |       71813     99.51%     99.51% |          69      0.10%     99.60% |         101      0.14%     99.74% |         102      0.14%     99.88% |          81      0.11%     99.99% |           1      0.00%    100.00% |           0      0.00%    100.00% |           1      0.00%    100.00% |           1      0.00%    100.00% |           1      0.00%    100.00% # delay histogram for all message (Unspecified)
system.caches.delayHistogram::total             72170                       # delay histogram for all message (Unspecified)
system.caches.m_outstandReqHistSeqr::bucket_size            2                       (Unspecified)
system.caches.m_outstandReqHistSeqr::max_bucket           19                       (Unspecified)
system.caches.m_outstandReqHistSeqr::samples     27810226                       (Unspecified)
system.caches.m_outstandReqHistSeqr::mean     1.342084                       (Unspecified)
system.caches.m_outstandReqHistSeqr::gmean     1.233315                       (Unspecified)
system.caches.m_outstandReqHistSeqr::stdev     0.701432                       (Unspecified)
system.caches.m_outstandReqHistSeqr      |    20566349     73.95%     73.95% |     6770453     24.35%     98.30% |      434344      1.56%     99.86% |       12957      0.05%     99.91% |        9828      0.04%     99.94% |       10409      0.04%     99.98% |        2900      0.01%     99.99% |        1622      0.01%    100.00% |        1364      0.00%    100.00% |           0      0.00%    100.00% (Unspecified)
system.caches.m_outstandReqHistSeqr::total     27810226                       (Unspecified)
system.caches.m_latencyHistSeqr::bucket_size           64                       (Unspecified)
system.caches.m_latencyHistSeqr::max_bucket          639                       (Unspecified)
system.caches.m_latencyHistSeqr::samples     28099151                       (Unspecified)
system.caches.m_latencyHistSeqr::mean        1.116172                       (Unspecified)
system.caches.m_latencyHistSeqr::gmean       1.012840                       (Unspecified)
system.caches.m_latencyHistSeqr::stdev       3.229358                       (Unspecified)
system.caches.m_latencyHistSeqr          |    28072246     99.90%     99.90% |       23682      0.08%     99.99% |        2578      0.01%    100.00% |         294      0.00%    100.00% |         221      0.00%    100.00% |         106      0.00%    100.00% |          12      0.00%    100.00% |          11      0.00%    100.00% |           1      0.00%    100.00% |           0      0.00%    100.00% (Unspecified)
system.caches.m_latencyHistSeqr::total       28099151                       (Unspecified)
system.caches.m_hitLatencyHistSeqr::bucket_size           16                       (Unspecified)
system.caches.m_hitLatencyHistSeqr::max_bucket          159                       (Unspecified)
system.caches.m_hitLatencyHistSeqr::samples     28062810                       (Unspecified)
system.caches.m_hitLatencyHistSeqr::mean     1.010334                       (Unspecified)
system.caches.m_hitLatencyHistSeqr::gmean     1.007165                       (Unspecified)
system.caches.m_hitLatencyHistSeqr::stdev     0.111245                       (Unspecified)
system.caches.m_hitLatencyHistSeqr       |    28062789    100.00%    100.00% |           4      0.00%    100.00% |           5      0.00%    100.00% |           5      0.00%    100.00% |           4      0.00%    100.00% |           3      0.00%    100.00% |           0      0.00%    100.00% |           0      0.00%    100.00% |           0      0.00%    100.00% |           0      0.00%    100.00% (Unspecified)
system.caches.m_hitLatencyHistSeqr::total     28062810                       (Unspecified)
system.caches.m_missLatencyHistSeqr::bucket_size           64                       (Unspecified)
system.caches.m_missLatencyHistSeqr::max_bucket          639                       (Unspecified)
system.caches.m_missLatencyHistSeqr::samples        36341                       (Unspecified)
system.caches.m_missLatencyHistSeqr::mean    82.845216                       (Unspecified)
system.caches.m_missLatencyHistSeqr::gmean    77.599187                       (Unspecified)
system.caches.m_missLatencyHistSeqr::stdev    36.956586                       (Unspecified)
system.caches.m_missLatencyHistSeqr      |        9443     25.98%     25.98% |       23675     65.15%     91.13% |        2578      7.09%     98.23% |         294      0.81%     99.03% |         221      0.61%     99.64% |         106      0.29%     99.93% |          12      0.03%     99.97% |          11      0.03%    100.00% |           1      0.00%    100.00% |           0      0.00%    100.00% (Unspecified)
system.caches.m_missLatencyHistSeqr::total        36341                       (Unspecified)
system.caches.delayVCHist.vnet_1::bucket_size            1                       # delay histogram for vnet_1 (Unspecified)
system.caches.delayVCHist.vnet_1::max_bucket            9                       # delay histogram for vnet_1 (Unspecified)
system.caches.delayVCHist.vnet_1::samples        36341                       # delay histogram for vnet_1 (Unspecified)
system.caches.delayVCHist.vnet_1::mean       0.000991                       # delay histogram for vnet_1 (Unspecified)
system.caches.delayVCHist.vnet_1::stdev      0.072680                       # delay histogram for vnet_1 (Unspecified)
system.caches.delayVCHist.vnet_1         |       36332     99.98%     99.98% |           0      0.00%     99.98% |           5      0.01%     99.99% |           0      0.00%     99.99% |           0      0.00%     99.99% |           0      0.00%     99.99% |           3      0.01%    100.00% |           0      0.00%    100.00% |           1      0.00%    100.00% |           0      0.00%    100.00% # delay histogram for vnet_1 (Unspecified)
system.caches.delayVCHist.vnet_1::total         36341                       # delay histogram for vnet_1 (Unspecified)
system.caches.delayVCHist.vnet_2::bucket_size            2                       # delay histogram for vnet_2 (Unspecified)
system.caches.delayVCHist.vnet_2::max_bucket           19                       # delay histogram for vnet_2 (Unspecified)
system.caches.delayVCHist.vnet_2::samples        35829                       # delay histogram for vnet_2 (Unspecified)
system.caches.delayVCHist.vnet_2::mean       0.050908                       # delay histogram for vnet_2 (Unspecified)
system.caches.delayVCHist.vnet_2::stdev      0.562573                       # delay histogram for vnet_2 (Unspecified)
system.caches.delayVCHist.vnet_2         |       35481     99.03%     99.03% |          64      0.18%     99.21% |         101      0.28%     99.49% |          99      0.28%     99.77% |          80      0.22%     99.99% |           1      0.00%     99.99% |           0      0.00%     99.99% |           1      0.00%     99.99% |           1      0.00%    100.00% |           1      0.00%    100.00% # delay histogram for vnet_2 (Unspecified)
system.caches.delayVCHist.vnet_2::total         35829                       # delay histogram for vnet_2 (Unspecified)
system.caches.L1Cache_Controller.Load         8932113      0.00%      0.00% (Unspecified)
system.caches.L1Cache_Controller.Ifetch       8215768      0.00%      0.00% (Unspecified)
system.caches.L1Cache_Controller.Store       10951271      0.00%      0.00% (Unspecified)
system.caches.L1Cache_Controller.Data           36341      0.00%      0.00% (Unspecified)
system.caches.L1Cache_Controller.Replacement        35830      0.00%      0.00% (Unspecified)
system.caches.L1Cache_Controller.Writeback_Ack        35829      0.00%      0.00% (Unspecified)
system.caches.L1Cache_Controller.I.Load         14530      0.00%      0.00% (Unspecified)
system.caches.L1Cache_Controller.I.Ifetch         2128      0.00%      0.00% (Unspecified)
system.caches.L1Cache_Controller.I.Store        19684      0.00%      0.00% (Unspecified)
system.caches.L1Cache_Controller.M.Load       8917583      0.00%      0.00% (Unspecified)
system.caches.L1Cache_Controller.M.Ifetch      8213640      0.00%      0.00% (Unspecified)
system.caches.L1Cache_Controller.M.Store     10931587      0.00%      0.00% (Unspecified)
system.caches.L1Cache_Controller.M.Replacement        35830      0.00%      0.00% (Unspecified)
system.caches.L1Cache_Controller.MI.Writeback_Ack        35829      0.00%      0.00% (Unspecified)
system.caches.L1Cache_Controller.IS.Data        16657      0.00%      0.00% (Unspecified)
system.caches.L1Cache_Controller.IM.Data        19684      0.00%      0.00% (Unspecified)
system.caches.Directory_Controller.GETX         36341      0.00%      0.00% (Unspecified)
system.caches.Directory_Controller.PUTX         35829      0.00%      0.00% (Unspecified)
system.caches.Directory_Controller.Memory_Data        36341      0.00%      0.00% (Unspecified)
system.caches.Directory_Controller.Memory_Ack        35829      0.00%      0.00% (Unspecified)
system.caches.Directory_Controller.I.GETX        36341      0.00%      0.00% (Unspecified)
system.caches.Directory_Controller.M.PUTX        35829      0.00%      0.00% (Unspecified)
system.caches.Directory_Controller.IM.Memory_Data        36341      0.00%      0.00% (Unspecified)
system.caches.Directory_Controller.MI.Memory_Ack        35829      0.00%      0.00% (Unspecified)
system.caches.MachineType.Directory.miss_mach_latency_hist_seqr::bucket_size           64                       (Unspecified)
system.caches.MachineType.Directory.miss_mach_latency_hist_seqr::max_bucket          639                       (Unspecified)
system.caches.MachineType.Directory.miss_mach_latency_hist_seqr::samples        36341                       (Unspecified)
system.caches.MachineType.Directory.miss_mach_latency_hist_seqr::mean    82.845216                       (Unspecified)
system.caches.MachineType.Directory.miss_mach_latency_hist_seqr::gmean    77.599187                       (Unspecified)
system.caches.MachineType.Directory.miss_mach_latency_hist_seqr::stdev    36.956586                       (Unspecified)
system.caches.MachineType.Directory.miss_mach_latency_hist_seqr |        9443     25.98%     25.98% |       23675     65.15%     91.13% |        2578      7.09%     98.23% |         294      0.81%     99.03% |         221      0.61%     99.64% |         106      0.29%     99.93% |          12      0.03%     99.97% |          11      0.03%    100.00% |           1      0.00%    100.00% |           0      0.00%    100.00% (Unspecified)
system.caches.MachineType.Directory.miss_mach_latency_hist_seqr::total        36341                       (Unspecified)
system.caches.MachineType.Directory.miss_latency_hist_seqr.issue_to_initial_request::bucket_size            1                       (Unspecified)
system.caches.MachineType.Directory.miss_latency_hist_seqr.issue_to_initial_request::max_bucket            9                       (Unspecified)
system.caches.MachineType.Directory.miss_latency_hist_seqr.issue_to_initial_request::samples            1                       (Unspecified)
system.caches.MachineType.Directory.miss_latency_hist_seqr.issue_to_initial_request::stdev          nan                       (Unspecified)
system.caches.MachineType.Directory.miss_latency_hist_seqr.issue_to_initial_request |           1    100.00%    100.00% |           0      0.00%    100.00% |           0      0.00%    100.00% |           0      0.00%    100.00% |           0      0.00%    100.00% |           0      0.00%    100.00% |           0      0.00%    100.00% |           0      0.00%    100.00% |           0      0.00%    100.00% |           0      0.00%    100.00% (Unspecified)
system.caches.MachineType.Directory.miss_latency_hist_seqr.issue_to_initial_request::total            1                       (Unspecified)
system.caches.MachineType.Directory.miss_latency_hist_seqr.initial_to_forward::bucket_size            1                       (Unspecified)
system.caches.MachineType.Directory.miss_latency_hist_seqr.initial_to_forward::max_bucket            9                       (Unspecified)
system.caches.MachineType.Directory.miss_latency_hist_seqr.initial_to_forward::samples            1                       (Unspecified)
system.caches.MachineType.Directory.miss_latency_hist_seqr.initial_to_forward::stdev          nan                       (Unspecified)
system.caches.MachineType.Directory.miss_latency_hist_seqr.initial_to_forward |           1    100.00%    100.00% |           0      0.00%    100.00% |           0      0.00%    100.00% |           0      0.00%    100.00% |           0      0.00%    100.00% |           0      0.00%    100.00% |           0      0.00%    100.00% |           0      0.00%    100.00% |           0      0.00%    100.00% |           0      0.00%    100.00% (Unspecified)
system.caches.MachineType.Directory.miss_latency_hist_seqr.initial_to_forward::total            1                       (Unspecified)
system.caches.MachineType.Directory.miss_latency_hist_seqr.forward_to_first_response::bucket_size            1                       (Unspecified)
system.caches.MachineType.Directory.miss_latency_hist_seqr.forward_to_first_response::max_bucket            9                       (Unspecified)
system.caches.MachineType.Directory.miss_latency_hist_seqr.forward_to_first_response::samples            1                       (Unspecified)
system.caches.MachineType.Directory.miss_latency_hist_seqr.forward_to_first_response::stdev          nan                       (Unspecified)
system.caches.MachineType.Directory.miss_latency_hist_seqr.forward_to_first_response |           1    100.00%    100.00% |           0      0.00%    100.00% |           0      0.00%    100.00% |           0      0.00%    100.00% |           0      0.00%    100.00% |           0      0.00%    100.00% |           0      0.00%    100.00% |           0      0.00%    100.00% |           0      0.00%    100.00% |           0      0.00%    100.00% (Unspecified)
system.caches.MachineType.Directory.miss_latency_hist_seqr.forward_to_first_response::total            1                       (Unspecified)
system.caches.MachineType.Directory.miss_latency_hist_seqr.first_response_to_completion::bucket_size            8                       (Unspecified)
system.caches.MachineType.Directory.miss_latency_hist_seqr.first_response_to_completion::max_bucket           79                       (Unspecified)
system.caches.MachineType.Directory.miss_latency_hist_seqr.first_response_to_completion::samples            1                       (Unspecified)
system.caches.MachineType.Directory.miss_latency_hist_seqr.first_response_to_completion::mean           73                       (Unspecified)
system.caches.MachineType.Directory.miss_latency_hist_seqr.first_response_to_completion::gmean    73.000000                       (Unspecified)
system.caches.MachineType.Directory.miss_latency_hist_seqr.first_response_to_completion::stdev          nan                       (Unspecified)
system.caches.MachineType.Directory.miss_latency_hist_seqr.first_response_to_completion |           0      0.00%      0.00% |           0      0.00%      0.00% |           0      0.00%      0.00% |           0      0.00%      0.00% |           0      0.00%      0.00% |           0      0.00%      0.00% |           0      0.00%      0.00% |           0      0.00%      0.00% |           0      0.00%      0.00% |           1    100.00%    100.00% (Unspecified)
system.caches.MachineType.Directory.miss_latency_hist_seqr.first_response_to_completion::total            1                       (Unspecified)
system.caches.MachineType.Directory.incomplete_times_seqr        36340                       (Unspecified)
system.caches.RequestType.LD.latency_hist_seqr::bucket_size           64                       (Unspecified)
system.caches.RequestType.LD.latency_hist_seqr::max_bucket          639                       (Unspecified)
system.caches.RequestType.LD.latency_hist_seqr::samples      8932113                       (Unspecified)
system.caches.RequestType.LD.latency_hist_seqr::mean     1.129916                       (Unspecified)
system.caches.RequestType.LD.latency_hist_seqr::gmean     1.007051                       (Unspecified)
system.caches.RequestType.LD.latency_hist_seqr::stdev     3.596156                       (Unspecified)
system.caches.RequestType.LD.latency_hist_seqr |     8923460     99.90%     99.90% |        7185      0.08%     99.98% |        1140      0.01%    100.00% |         165      0.00%    100.00% |         101      0.00%    100.00% |          52      0.00%    100.00% |           7      0.00%    100.00% |           2      0.00%    100.00% |           1      0.00%    100.00% |           0      0.00%    100.00% (Unspecified)
system.caches.RequestType.LD.latency_hist_seqr::total      8932113                       (Unspecified)
system.caches.RequestType.LD.hit_latency_hist_seqr::bucket_size           16                       (Unspecified)
system.caches.RequestType.LD.hit_latency_hist_seqr::max_bucket          159                       (Unspecified)
system.caches.RequestType.LD.hit_latency_hist_seqr::samples      8917583                       (Unspecified)
system.caches.RequestType.LD.hit_latency_hist_seqr::mean     1.000059                       (Unspecified)
system.caches.RequestType.LD.hit_latency_hist_seqr::gmean     1.000005                       (Unspecified)
system.caches.RequestType.LD.hit_latency_hist_seqr::stdev     0.060599                       (Unspecified)
system.caches.RequestType.LD.hit_latency_hist_seqr |     8917574    100.00%    100.00% |           2      0.00%    100.00% |           0      0.00%    100.00% |           2      0.00%    100.00% |           3      0.00%    100.00% |           2      0.00%    100.00% |           0      0.00%    100.00% |           0      0.00%    100.00% |           0      0.00%    100.00% |           0      0.00%    100.00% (Unspecified)
system.caches.RequestType.LD.hit_latency_hist_seqr::total      8917583                       (Unspecified)
system.caches.RequestType.LD.miss_latency_hist_seqr::bucket_size           64                       (Unspecified)
system.caches.RequestType.LD.miss_latency_hist_seqr::max_bucket          639                       (Unspecified)
system.caches.RequestType.LD.miss_latency_hist_seqr::samples        14530                       (Unspecified)
system.caches.RequestType.LD.miss_latency_hist_seqr::mean    80.827805                       (Unspecified)
system.caches.RequestType.LD.miss_latency_hist_seqr::gmean    74.940932                       (Unspecified)
system.caches.RequestType.LD.miss_latency_hist_seqr::stdev    39.821129                       (Unspecified)
system.caches.RequestType.LD.miss_latency_hist_seqr |        5882     40.48%     40.48% |        7180     49.42%     89.90% |        1140      7.85%     97.74% |         165      1.14%     98.88% |         101      0.70%     99.57% |          52      0.36%     99.93% |           7      0.05%     99.98% |           2      0.01%     99.99% |           1      0.01%    100.00% |           0      0.00%    100.00% (Unspecified)
system.caches.RequestType.LD.miss_latency_hist_seqr::total        14530                       (Unspecified)
system.caches.RequestType.ST.latency_hist_seqr::bucket_size           64                       (Unspecified)
system.caches.RequestType.ST.latency_hist_seqr::max_bucket          639                       (Unspecified)
system.caches.RequestType.ST.latency_hist_seqr::samples     10484969                       (Unspecified)
system.caches.RequestType.ST.latency_hist_seqr::mean     1.170320                       (Unspecified)
system.caches.RequestType.ST.latency_hist_seqr::gmean     1.018859                       (Unspecified)
system.caches.RequestType.ST.latency_hist_seqr::stdev     3.891780                       (Unspecified)
system.caches.RequestType.ST.latency_hist_seqr |    10467669     99.84%     99.84% |       15816      0.15%     99.99% |        1223      0.01%    100.00% |         103      0.00%    100.00% |          98      0.00%    100.00% |          47      0.00%    100.00% |           4      0.00%    100.00% |           9      0.00%    100.00% |           0      0.00%    100.00% |           0      0.00%    100.00% (Unspecified)
system.caches.RequestType.ST.latency_hist_seqr::total     10484969                       (Unspecified)
system.caches.RequestType.ST.hit_latency_hist_seqr::bucket_size            8                       (Unspecified)
system.caches.RequestType.ST.hit_latency_hist_seqr::max_bucket           79                       (Unspecified)
system.caches.RequestType.ST.hit_latency_hist_seqr::samples     10465706                       (Unspecified)
system.caches.RequestType.ST.hit_latency_hist_seqr::mean     1.015361                       (Unspecified)
system.caches.RequestType.ST.hit_latency_hist_seqr::gmean     1.010687                       (Unspecified)
system.caches.RequestType.ST.hit_latency_hist_seqr::stdev     0.128683                       (Unspecified)
system.caches.RequestType.ST.hit_latency_hist_seqr |    10465700    100.00%    100.00% |           0      0.00%    100.00% |           0      0.00%    100.00% |           0      0.00%    100.00% |           1      0.00%    100.00% |           2      0.00%    100.00% |           1      0.00%    100.00% |           1      0.00%    100.00% |           1      0.00%    100.00% |           0      0.00%    100.00% (Unspecified)
system.caches.RequestType.ST.hit_latency_hist_seqr::total     10465706                       (Unspecified)
system.caches.RequestType.ST.miss_latency_hist_seqr::bucket_size           64                       (Unspecified)
system.caches.RequestType.ST.miss_latency_hist_seqr::max_bucket          639                       (Unspecified)
system.caches.RequestType.ST.miss_latency_hist_seqr::samples        19263                       (Unspecified)
system.caches.RequestType.ST.miss_latency_hist_seqr::mean    85.360743                       (Unspecified)
system.caches.RequestType.ST.miss_latency_hist_seqr::gmean    80.978003                       (Unspecified)
system.caches.RequestType.ST.miss_latency_hist_seqr::stdev    33.675214                       (Unspecified)
system.caches.RequestType.ST.miss_latency_hist_seqr |        1964     10.20%     10.20% |       15815     82.10%     92.30% |        1223      6.35%     98.65% |         103      0.53%     99.18% |          98      0.51%     99.69% |          47      0.24%     99.93% |           4      0.02%     99.95% |           9      0.05%    100.00% |           0      0.00%    100.00% |           0      0.00%    100.00% (Unspecified)
system.caches.RequestType.ST.miss_latency_hist_seqr::total        19263                       (Unspecified)
system.caches.RequestType.IFETCH.latency_hist_seqr::bucket_size           64                       (Unspecified)
system.caches.RequestType.IFETCH.latency_hist_seqr::max_bucket          639                       (Unspecified)
system.caches.RequestType.IFETCH.latency_hist_seqr::samples      8215767                       (Unspecified)
system.caches.RequestType.IFETCH.latency_hist_seqr::mean     1.018787                       (Unspecified)
system.caches.RequestType.IFETCH.latency_hist_seqr::gmean     1.001091                       (Unspecified)
system.caches.RequestType.IFETCH.latency_hist_seqr::stdev     1.338782                       (Unspecified)
system.caches.RequestType.IFETCH.latency_hist_seqr |     8215053     99.99%     99.99% |         504      0.01%    100.00% |         169      0.00%    100.00% |          16      0.00%    100.00% |          19      0.00%    100.00% |           5      0.00%    100.00% |           1      0.00%    100.00% |           0      0.00%    100.00% |           0      0.00%    100.00% |           0      0.00%    100.00% (Unspecified)
system.caches.RequestType.IFETCH.latency_hist_seqr::total      8215767                       (Unspecified)
system.caches.RequestType.IFETCH.hit_latency_hist_seqr::bucket_size           16                       (Unspecified)
system.caches.RequestType.IFETCH.hit_latency_hist_seqr::max_bucket          159                       (Unspecified)
system.caches.RequestType.IFETCH.hit_latency_hist_seqr::samples      8213640                       (Unspecified)
system.caches.RequestType.IFETCH.hit_latency_hist_seqr::mean     1.000022                       (Unspecified)
system.caches.RequestType.IFETCH.hit_latency_hist_seqr::gmean     1.000002                       (Unspecified)
system.caches.RequestType.IFETCH.hit_latency_hist_seqr::stdev     0.035082                       (Unspecified)
system.caches.RequestType.IFETCH.hit_latency_hist_seqr |     8213636    100.00%    100.00% |           2      0.00%    100.00% |           0      0.00%    100.00% |           1      0.00%    100.00% |           0      0.00%    100.00% |           1      0.00%    100.00% |           0      0.00%    100.00% |           0      0.00%    100.00% |           0      0.00%    100.00% |           0      0.00%    100.00% (Unspecified)
system.caches.RequestType.IFETCH.hit_latency_hist_seqr::total      8213640                       (Unspecified)
system.caches.RequestType.IFETCH.miss_latency_hist_seqr::bucket_size           64                       (Unspecified)
system.caches.RequestType.IFETCH.miss_latency_hist_seqr::max_bucket          639                       (Unspecified)
system.caches.RequestType.IFETCH.miss_latency_hist_seqr::samples         2127                       (Unspecified)
system.caches.RequestType.IFETCH.miss_latency_hist_seqr::mean    73.481899                       (Unspecified)
system.caches.RequestType.IFETCH.miss_latency_hist_seqr::gmean    66.986192                       (Unspecified)
system.caches.RequestType.IFETCH.miss_latency_hist_seqr::stdev    40.827293                       (Unspecified)
system.caches.RequestType.IFETCH.miss_latency_hist_seqr |        1414     66.48%     66.48% |         503     23.65%     90.13% |         169      7.95%     98.07% |          16      0.75%     98.82% |          19      0.89%     99.72% |           5      0.24%     99.95% |           1      0.05%    100.00% |           0      0.00%    100.00% |           0      0.00%    100.00% |           0      0.00%    100.00% (Unspecified)
system.caches.RequestType.IFETCH.miss_latency_hist_seqr::total         2127                       (Unspecified)
system.caches.RequestType.RMW_Read.latency_hist_seqr::bucket_size           64                       (Unspecified)
system.caches.RequestType.RMW_Read.latency_hist_seqr::max_bucket          639                       (Unspecified)
system.caches.RequestType.RMW_Read.latency_hist_seqr::samples       466302                       (Unspecified)
system.caches.RequestType.RMW_Read.latency_hist_seqr::mean     1.351191                       (Unspecified)
system.caches.RequestType.RMW_Read.latency_hist_seqr::gmean     1.215169                       (Unspecified)
system.caches.RequestType.RMW_Read.latency_hist_seqr::stdev     2.877036                       (Unspecified)
system.caches.RequestType.RMW_Read.latency_hist_seqr |      466064     99.95%     99.95% |         177      0.04%     99.99% |          46      0.01%    100.00% |          10      0.00%    100.00% |           3      0.00%    100.00% |           2      0.00%    100.00% |           0      0.00%    100.00% |           0      0.00%    100.00% |           0      0.00%    100.00% |           0      0.00%    100.00% (Unspecified)
system.caches.RequestType.RMW_Read.latency_hist_seqr::total       466302                       (Unspecified)
system.caches.RequestType.RMW_Read.hit_latency_hist_seqr::bucket_size            8                       (Unspecified)
system.caches.RequestType.RMW_Read.hit_latency_hist_seqr::max_bucket           79                       (Unspecified)
system.caches.RequestType.RMW_Read.hit_latency_hist_seqr::samples       465881                       (Unspecified)
system.caches.RequestType.RMW_Read.hit_latency_hist_seqr::mean     1.275890                       (Unspecified)
system.caches.RequestType.RMW_Read.hit_latency_hist_seqr::gmean     1.210618                       (Unspecified)
system.caches.RequestType.RMW_Read.hit_latency_hist_seqr::stdev     0.454406                       (Unspecified)
system.caches.RequestType.RMW_Read.hit_latency_hist_seqr |      465879    100.00%    100.00% |           0      0.00%    100.00% |           0      0.00%    100.00% |           0      0.00%    100.00% |           1      0.00%    100.00% |           1      0.00%    100.00% |           0      0.00%    100.00% |           0      0.00%    100.00% |           0      0.00%    100.00% |           0      0.00%    100.00% (Unspecified)
system.caches.RequestType.RMW_Read.hit_latency_hist_seqr::total       465881                       (Unspecified)
system.caches.RequestType.RMW_Read.miss_latency_hist_seqr::bucket_size           64                       (Unspecified)
system.caches.RequestType.RMW_Read.miss_latency_hist_seqr::max_bucket          639                       (Unspecified)
system.caches.RequestType.RMW_Read.miss_latency_hist_seqr::samples          421                       (Unspecified)
system.caches.RequestType.RMW_Read.miss_latency_hist_seqr::mean    84.679335                       (Unspecified)
system.caches.RequestType.RMW_Read.miss_latency_hist_seqr::gmean    77.283925                       (Unspecified)
system.caches.RequestType.RMW_Read.miss_latency_hist_seqr::stdev    44.658591                       (Unspecified)
system.caches.RequestType.RMW_Read.miss_latency_hist_seqr |         183     43.47%     43.47% |         177     42.04%     85.51% |          46     10.93%     96.44% |          10      2.38%     98.81% |           3      0.71%     99.52% |           2      0.48%    100.00% |           0      0.00%    100.00% |           0      0.00%    100.00% |           0      0.00%    100.00% |           0      0.00%    100.00% (Unspecified)
system.caches.RequestType.RMW_Read.miss_latency_hist_seqr::total          421                       (Unspecified)
system.caches.RequestTypeMachineType.LD.Directory.miss_type_mach_latency_hist_seqr::bucket_size           64                       (Unspecified)
system.caches.RequestTypeMachineType.LD.Directory.miss_type_mach_latency_hist_seqr::max_bucket          639                       (Unspecified)
system.caches.RequestTypeMachineType.LD.Directory.miss_type_mach_latency_hist_seqr::samples        14530                       (Unspecified)
system.caches.RequestTypeMachineType.LD.Directory.miss_type_mach_latency_hist_seqr::mean    80.827805                       (Unspecified)
system.caches.RequestTypeMachineType.LD.Directory.miss_type_mach_latency_hist_seqr::gmean    74.940932                       (Unspecified)
system.caches.RequestTypeMachineType.LD.Directory.miss_type_mach_latency_hist_seqr::stdev    39.821129                       (Unspecified)
system.caches.RequestTypeMachineType.LD.Directory.miss_type_mach_latency_hist_seqr |        5882     40.48%     40.48% |        7180     49.42%     89.90% |        1140      7.85%     97.74% |         165      1.14%     98.88% |         101      0.70%     99.57% |          52      0.36%     99.93% |           7      0.05%     99.98% |           2      0.01%     99.99% |           1      0.01%    100.00% |           0      0.00%    100.00% (Unspecified)
system.caches.RequestTypeMachineType.LD.Directory.miss_type_mach_latency_hist_seqr::total        14530                       (Unspecified)
system.caches.RequestTypeMachineType.ST.Directory.miss_type_mach_latency_hist_seqr::bucket_size           64                       (Unspecified)
system.caches.RequestTypeMachineType.ST.Directory.miss_type_mach_latency_hist_seqr::max_bucket          639                       (Unspecified)
system.caches.RequestTypeMachineType.ST.Directory.miss_type_mach_latency_hist_seqr::samples        19263                       (Unspecified)
system.caches.RequestTypeMachineType.ST.Directory.miss_type_mach_latency_hist_seqr::mean    85.360743                       (Unspecified)
system.caches.RequestTypeMachineType.ST.Directory.miss_type_mach_latency_hist_seqr::gmean    80.978003                       (Unspecified)
system.caches.RequestTypeMachineType.ST.Directory.miss_type_mach_latency_hist_seqr::stdev    33.675214                       (Unspecified)
system.caches.RequestTypeMachineType.ST.Directory.miss_type_mach_latency_hist_seqr |        1964     10.20%     10.20% |       15815     82.10%     92.30% |        1223      6.35%     98.65% |         103      0.53%     99.18% |          98      0.51%     99.69% |          47      0.24%     99.93% |           4      0.02%     99.95% |           9      0.05%    100.00% |           0      0.00%    100.00% |           0      0.00%    100.00% (Unspecified)
system.caches.RequestTypeMachineType.ST.Directory.miss_type_mach_latency_hist_seqr::total        19263                       (Unspecified)
system.caches.RequestTypeMachineType.IFETCH.Directory.miss_type_mach_latency_hist_seqr::bucket_size           64                       (Unspecified)
system.caches.RequestTypeMachineType.IFETCH.Directory.miss_type_mach_latency_hist_seqr::max_bucket          639                       (Unspecified)
system.caches.RequestTypeMachineType.IFETCH.Directory.miss_type_mach_latency_hist_seqr::samples         2127                       (Unspecified)
system.caches.RequestTypeMachineType.IFETCH.Directory.miss_type_mach_latency_hist_seqr::mean    73.481899                       (Unspecified)
system.caches.RequestTypeMachineType.IFETCH.Directory.miss_type_mach_latency_hist_seqr::gmean    66.986192                       (Unspecified)
system.caches.RequestTypeMachineType.IFETCH.Directory.miss_type_mach_latency_hist_seqr::stdev    40.827293                       (Unspecified)
system.caches.RequestTypeMachineType.IFETCH.Directory.miss_type_mach_latency_hist_seqr |        1414     66.48%     66.48% |         503     23.65%     90.13% |         169      7.95%     98.07% |          16      0.75%     98.82% |          19      0.89%     99.72% |           5      0.24%     99.95% |           1      0.05%    100.00% |           0      0.00%    100.00% |           0      0.00%    100.00% |           0      0.00%    100.00% (Unspecified)
system.caches.RequestTypeMachineType.IFETCH.Directory.miss_type_mach_latency_hist_seqr::total         2127                       (Unspecified)
system.caches.RequestTypeMachineType.RMW_Read.Directory.miss_type_mach_latency_hist_seqr::bucket_size           64                       (Unspecified)
system.caches.RequestTypeMachineType.RMW_Read.Directory.miss_type_mach_latency_hist_seqr::max_bucket          639                       (Unspecified)
system.caches.RequestTypeMachineType.RMW_Read.Directory.miss_type_mach_latency_hist_seqr::samples          421                       (Unspecified)
system.caches.RequestTypeMachineType.RMW_Read.Directory.miss_type_mach_latency_hist_seqr::mean    84.679335                       (Unspecified)
system.caches.RequestTypeMachineType.RMW_Read.Directory.miss_type_mach_latency_hist_seqr::gmean    77.283925                       (Unspecified)
system.caches.RequestTypeMachineType.RMW_Read.Directory.miss_type_mach_latency_hist_seqr::stdev    44.658591                       (Unspecified)
system.caches.RequestTypeMachineType.RMW_Read.Directory.miss_type_mach_latency_hist_seqr |         183     43.47%     43.47% |         177     42.04%     85.51% |          46     10.93%     96.44% |          10      2.38%     98.81% |           3      0.71%     99.52% |           2      0.48%    100.00% |           0      0.00%    100.00% |           0      0.00%    100.00% |           0      0.00%    100.00% |           0      0.00%    100.00% (Unspecified)
system.caches.RequestTypeMachineType.RMW_Read.Directory.miss_type_mach_latency_hist_seqr::total          421                       (Unspecified)
system.caches.controllers0.delayHistogram::samples        72170                       # delay_histogram (Unspecified)
system.caches.controllers0.delayHistogram::mean     0.025772                       # delay_histogram (Unspecified)
system.caches.controllers0.delayHistogram::stdev     0.400502                       # delay_histogram (Unspecified)
system.caches.controllers0.delayHistogram::0-1        71813     99.51%     99.51% # delay_histogram (Unspecified)
system.caches.controllers0.delayHistogram::2-3           69      0.10%     99.60% # delay_histogram (Unspecified)
system.caches.controllers0.delayHistogram::4-5          101      0.14%     99.74% # delay_histogram (Unspecified)
system.caches.controllers0.delayHistogram::6-7          102      0.14%     99.88% # delay_histogram (Unspecified)
system.caches.controllers0.delayHistogram::8-9           81      0.11%     99.99% # delay_histogram (Unspecified)
system.caches.controllers0.delayHistogram::10-11            1      0.00%    100.00% # delay_histogram (Unspecified)
system.caches.controllers0.delayHistogram::14-15            1      0.00%    100.00% # delay_histogram (Unspecified)
system.caches.controllers0.delayHistogram::16-17            1      0.00%    100.00% # delay_histogram (Unspecified)
system.caches.controllers0.delayHistogram::18-19            1      0.00%    100.00% # delay_histogram (Unspecified)
system.caches.controllers0.delayHistogram::total        72170                       # delay_histogram (Unspecified)
system.caches.controllers0.cacheMemory.m_demand_hits     28062810                       # Number of cache demand hits (Unspecified)
system.caches.controllers0.cacheMemory.m_demand_misses        36342                       # Number of cache demand misses (Unspecified)
system.caches.controllers0.cacheMemory.m_demand_accesses     28099152                       # Number of cache demand accesses (Unspecified)
system.caches.controllers0.forwardToCache.m_buf_msgs     0.000699                       # Average number of messages in buffer (Unspecified)
system.caches.controllers0.forwardToCache.m_stall_time  5000.285167                       # Average number of cycles messages are stalled in this MB (Unspecified)
system.caches.controllers0.mandatoryQueue.m_buf_msgs     0.548520                       # Average number of messages in buffer (Unspecified)
system.caches.controllers0.mandatoryQueue.m_stall_time  1000.076753                       # Average number of cycles messages are stalled in this MB (Unspecified)
system.caches.controllers0.power_state.pwrStateResidencyTicks::UNDEFINED  51229601000                       # Cumulative time (in ticks) in various power states (Tick)
system.caches.controllers0.requestFromCache.m_buf_msgs     0.002818                       # Average number of messages in buffer (Unspecified)
system.caches.controllers0.requestFromCache.m_stall_time  1999.999883                       # Average number of cycles messages are stalled in this MB (Unspecified)
system.caches.controllers0.responseToCache.m_buf_msgs     0.000709                       # Average number of messages in buffer (Unspecified)
system.caches.controllers0.responseToCache.m_stall_time  5000.017744                       # Average number of cycles messages are stalled in this MB (Unspecified)
system.caches.controllers1.forwardFromDir.m_buf_msgs     0.000699                       # Average number of messages in buffer (Unspecified)
system.caches.controllers1.forwardFromDir.m_stall_time   999.812940                       # Average number of cycles messages are stalled in this MB (Unspecified)
system.caches.controllers1.power_state.pwrStateResidencyTicks::UNDEFINED  51229601000                       # Cumulative time (in ticks) in various power states (Tick)
system.caches.controllers1.requestToDir.m_buf_msgs     0.001409                       # Average number of messages in buffer (Unspecified)
system.caches.controllers1.requestToDir.m_stall_time 10007.489830                       # Average number of cycles messages are stalled in this MB (Unspecified)
system.caches.controllers1.requestToMemory.m_buf_msgs     0.001409                       # Average number of messages in buffer (Unspecified)
system.caches.controllers1.requestToMemory.m_stall_time  1000.003904                       # Average number of cycles messages are stalled in this MB (Unspecified)
system.caches.controllers1.responseFromDir.m_buf_msgs     0.000709                       # Average number of messages in buffer (Unspecified)
system.caches.controllers1.responseFromDir.m_stall_time   999.998653                       # Average number of cycles messages are stalled in this MB (Unspecified)
system.caches.controllers1.responseFromMemory.m_buf_msgs     0.001767                       # Average number of messages in buffer (Unspecified)
system.caches.controllers1.responseFromMemory.m_stall_time   999.998673                       # Average number of cycles messages are stalled in this MB (Unspecified)
system.caches.network.msg_count.Control         72682                       (Unspecified)
system.caches.network.msg_byte.Control         581456                       (Unspecified)
system.caches.network.msg_count.Data            71659                       (Unspecified)
system.caches.network.msg_byte.Data           5159448                       (Unspecified)
system.caches.network.msg_count.Response_Data        72682                       (Unspecified)
system.caches.network.msg_byte.Response_Data      5233104                       (Unspecified)
system.caches.network.msg_count.Writeback_Control        71658                       (Unspecified)
system.caches.network.msg_byte.Writeback_Control       573264                       (Unspecified)
system.caches.network.int_link_buffers2.m_buf_msgs     0.001409                       # Average number of messages in buffer (Unspecified)
system.caches.network.int_link_buffers2.m_stall_time  8007.490416                       # Average number of cycles messages are stalled in this MB (Unspecified)
system.caches.network.int_link_buffers8.m_buf_msgs     0.000699                       # Average number of messages in buffer (Unspecified)
system.caches.network.int_link_buffers8.m_stall_time  3000.659560                       # Average number of cycles messages are stalled in this MB (Unspecified)
system.caches.network.int_link_buffers9.m_buf_msgs     0.000709                       # Average number of messages in buffer (Unspecified)
system.caches.network.int_link_buffers9.m_stall_time  3000.020711                       # Average number of cycles messages are stalled in this MB (Unspecified)
system.caches.network.power_state.pwrStateResidencyTicks::UNDEFINED  51229601000                       # Cumulative time (in ticks) in various power states (Tick)
system.caches.network.routers0.percent_links_utilized     0.352190                       (Unspecified)
system.caches.network.routers0.msg_count.Control::2        36341                       (Unspecified)
system.caches.network.routers0.msg_bytes.Control::2       290728                       (Unspecified)
system.caches.network.routers0.msg_count.Data::2        35830                       (Unspecified)
system.caches.network.routers0.msg_bytes.Data::2      2579760                       (Unspecified)
system.caches.network.routers0.msg_count.Response_Data::4        36341                       (Unspecified)
system.caches.network.routers0.msg_bytes.Response_Data::4      2616552                       (Unspecified)
system.caches.network.routers0.msg_count.Writeback_Control::3        35829                       (Unspecified)
system.caches.network.routers0.msg_bytes.Writeback_Control::3       286632                       (Unspecified)
system.caches.network.routers0.port_buffers3.m_buf_msgs     0.000699                       # Average number of messages in buffer (Unspecified)
system.caches.network.routers0.port_buffers3.m_stall_time  4000.472383                       # Average number of cycles messages are stalled in this MB (Unspecified)
system.caches.network.routers0.port_buffers4.m_buf_msgs     0.000709                       # Average number of messages in buffer (Unspecified)
system.caches.network.routers0.port_buffers4.m_stall_time  4000.019247                       # Average number of cycles messages are stalled in this MB (Unspecified)
system.caches.network.routers0.port_buffers7.m_buf_msgs     0.004592                       # Average number of messages in buffer (Unspecified)
system.caches.network.routers0.port_buffers7.m_stall_time  7007.490650                       # Average number of cycles messages are stalled in this MB (Unspecified)
system.caches.network.routers0.power_state.pwrStateResidencyTicks::UNDEFINED  51229601000                       # Cumulative time (in ticks) in various power states (Tick)
system.caches.network.routers0.throttle00.link_utilization     0.354188                       (Unspecified)
system.caches.network.routers0.throttle00.msg_count.Response_Data::4        36341                       (Unspecified)
system.caches.network.routers0.throttle00.msg_bytes.Response_Data::4      2616552                       (Unspecified)
system.caches.network.routers0.throttle00.msg_count.Writeback_Control::3        35829                       (Unspecified)
system.caches.network.routers0.throttle00.msg_bytes.Writeback_Control::3       286632                       (Unspecified)
system.caches.network.routers0.throttle01.link_utilization     0.350192                       (Unspecified)
system.caches.network.routers0.throttle01.msg_count.Control::2        36341                       (Unspecified)
system.caches.network.routers0.throttle01.msg_bytes.Control::2       290728                       (Unspecified)
system.caches.network.routers0.throttle01.msg_count.Data::2        35830                       (Unspecified)
system.caches.network.routers0.throttle01.msg_bytes.Data::2      2579760                       (Unspecified)
system.caches.network.routers1.percent_links_utilized     0.352189                       (Unspecified)
system.caches.network.routers1.msg_count.Control::2        36341                       (Unspecified)
system.caches.network.routers1.msg_bytes.Control::2       290728                       (Unspecified)
system.caches.network.routers1.msg_count.Data::2        35829                       (Unspecified)
system.caches.network.routers1.msg_bytes.Data::2      2579688                       (Unspecified)
system.caches.network.routers1.msg_count.Response_Data::4        36341                       (Unspecified)
system.caches.network.routers1.msg_bytes.Response_Data::4      2616552                       (Unspecified)
system.caches.network.routers1.msg_count.Writeback_Control::3        35829                       (Unspecified)
system.caches.network.routers1.msg_bytes.Writeback_Control::3       286632                       (Unspecified)
system.caches.network.routers1.port_buffers2.m_buf_msgs     0.001409                       # Average number of messages in buffer (Unspecified)
system.caches.network.routers1.port_buffers2.m_stall_time  9007.490142                       # Average number of cycles messages are stalled in this MB (Unspecified)
system.caches.network.routers1.port_buffers6.m_buf_msgs     0.000717                       # Average number of messages in buffer (Unspecified)
system.caches.network.routers1.port_buffers6.m_stall_time  2000.846698                       # Average number of cycles messages are stalled in this MB (Unspecified)
system.caches.network.routers1.port_buffers7.m_buf_msgs     0.000710                       # Average number of messages in buffer (Unspecified)
system.caches.network.routers1.port_buffers7.m_stall_time  2000.022136                       # Average number of cycles messages are stalled in this MB (Unspecified)
system.caches.network.routers1.power_state.pwrStateResidencyTicks::UNDEFINED  51229601000                       # Cumulative time (in ticks) in various power states (Tick)
system.caches.network.routers1.throttle00.link_utilization     0.350190                       (Unspecified)
system.caches.network.routers1.throttle00.msg_count.Control::2        36341                       (Unspecified)
system.caches.network.routers1.throttle00.msg_bytes.Control::2       290728                       (Unspecified)
system.caches.network.routers1.throttle00.msg_count.Data::2        35829                       (Unspecified)
system.caches.network.routers1.throttle00.msg_bytes.Data::2      2579688                       (Unspecified)
system.caches.network.routers1.throttle01.link_utilization     0.354188                       (Unspecified)
system.caches.network.routers1.throttle01.msg_count.Response_Data::4        36341                       (Unspecified)
system.caches.network.routers1.throttle01.msg_bytes.Response_Data::4      2616552                       (Unspecified)
system.caches.network.routers1.throttle01.msg_count.Writeback_Control::3        35829                       (Unspecified)
system.caches.network.routers1.throttle01.msg_bytes.Writeback_Control::3       286632                       (Unspecified)
system.caches.power_state.pwrStateResidencyTicks::UNDEFINED  51229601000                       # Cumulative time (in ticks) in various power states (Tick)
system.caches.sequencers.power_state.pwrStateResidencyTicks::UNDEFINED  51229601000                       # Cumulative time (in ticks) in various power states (Tick)
system.caches.sys_port_proxy.power_state.pwrStateResidencyTicks::UNDEFINED  51229601000                       # Cumulative time (in ticks) in various power states (Tick)
system.clk_domain.clock                          1000                       # Clock period in ticks (Tick)
system.clk_domain.voltage_domain.voltage            1                       # Voltage in Volts (Volt)
system.cpu.numCycles                         51229602                       # Number of cpu cycles simulated (Cycle)
system.cpu.numWorkItemsStarted                      0                       # Number of work items this cpu started (Count)
system.cpu.numWorkItemsCompleted                    0                       # Number of work items this cpu completed (Count)
system.cpu.instsAdded                        95178483                       # Number of instructions added to the IQ (excludes non-spec) (Count)
system.cpu.nonSpecInstsAdded                   917752                       # Number of non-speculative instructions added to the IQ (Count)
system.cpu.instsIssued                       92149261                       # Number of instructions issued (Count)
system.cpu.squashedInstsIssued                   2163                       # Number of squashed instructions issued (Count)
system.cpu.squashedInstsExamined             12894260                       # Number of squashed instructions iterated over during squash; mainly for profiling (Count)
system.cpu.squashedOperandsExamined          15340826                       # Number of squashed operands that are examined and possibly removed from graph (Count)
system.cpu.squashedNonSpecRemoved                 112                       # Number of squashed non-spec instructions that were removed (Count)
system.cpu.numIssuedDist::samples            51169246                       # Number of insts issued each cycle (Count)
system.cpu.numIssuedDist::mean               1.800872                       # Number of insts issued each cycle (Count)
system.cpu.numIssuedDist::stdev              2.044060                       # Number of insts issued each cycle (Count)
system.cpu.numIssuedDist::underflows                0      0.00%      0.00% # Number of insts issued each cycle (Count)
system.cpu.numIssuedDist::0                  20906449     40.86%     40.86% # Number of insts issued each cycle (Count)
system.cpu.numIssuedDist::1                   8350462     16.32%     57.18% # Number of insts issued each cycle (Count)
system.cpu.numIssuedDist::2                   5259588     10.28%     67.46% # Number of insts issued each cycle (Count)
system.cpu.numIssuedDist::3                   5687586     11.12%     78.57% # Number of insts issued each cycle (Count)
system.cpu.numIssuedDist::4                   3407348      6.66%     85.23% # Number of insts issued each cycle (Count)
system.cpu.numIssuedDist::5                   4002881      7.82%     93.05% # Number of insts issued each cycle (Count)
system.cpu.numIssuedDist::6                   2528497      4.94%     97.99% # Number of insts issued each cycle (Count)
system.cpu.numIssuedDist::7                    809394      1.58%     99.58% # Number of insts issued each cycle (Count)
system.cpu.numIssuedDist::8                    217041      0.42%    100.00% # Number of insts issued each cycle (Count)
system.cpu.numIssuedDist::overflows                 0      0.00%    100.00% # Number of insts issued each cycle (Count)
system.cpu.numIssuedDist::min_value                 0                       # Number of insts issued each cycle (Count)
system.cpu.numIssuedDist::max_value                 8                       # Number of insts issued each cycle (Count)
system.cpu.numIssuedDist::total              51169246                       # Number of insts issued each cycle (Count)
system.cpu.statFuBusy::No_OpClass                   0      0.00%      0.00% # attempts to use FU when none available (Count)
system.cpu.statFuBusy::IntAlu                   62574     10.97%     10.97% # attempts to use FU when none available (Count)
system.cpu.statFuBusy::IntMult                      0      0.00%     10.97% # attempts to use FU when none available (Count)
system.cpu.statFuBusy::IntDiv                       0      0.00%     10.97% # attempts to use FU when none available (Count)
system.cpu.statFuBusy::FloatAdd                     0      0.00%     10.97% # attempts to use FU when none available (Count)
system.cpu.statFuBusy::FloatCmp                     0      0.00%     10.97% # attempts to use FU when none available (Count)
system.cpu.statFuBusy::FloatCvt                     0      0.00%     10.97% # attempts to use FU when none available (Count)
system.cpu.statFuBusy::FloatMult                    0      0.00%     10.97% # attempts to use FU when none available (Count)
system.cpu.statFuBusy::FloatMultAcc                 0      0.00%     10.97% # attempts to use FU when none available (Count)
system.cpu.statFuBusy::FloatDiv                     0      0.00%     10.97% # attempts to use FU when none available (Count)
system.cpu.statFuBusy::FloatMisc                    0      0.00%     10.97% # attempts to use FU when none available (Count)
system.cpu.statFuBusy::FloatSqrt                    0      0.00%     10.97% # attempts to use FU when none available (Count)
system.cpu.statFuBusy::SimdAdd                      2      0.00%     10.97% # attempts to use FU when none available (Count)
system.cpu.statFuBusy::SimdAddAcc                   0      0.00%     10.97% # attempts to use FU when none available (Count)
system.cpu.statFuBusy::SimdAlu                     51      0.01%     10.98% # attempts to use FU when none available (Count)
system.cpu.statFuBusy::SimdCmp                      0      0.00%     10.98% # attempts to use FU when none available (Count)
system.cpu.statFuBusy::SimdCvt                    858      0.15%     11.13% # attempts to use FU when none available (Count)
system.cpu.statFuBusy::SimdMisc                     4      0.00%     11.13% # attempts to use FU when none available (Count)
system.cpu.statFuBusy::SimdMult                     0      0.00%     11.13% # attempts to use FU when none available (Count)
system.cpu.statFuBusy::SimdMultAcc                  0      0.00%     11.13% # attempts to use FU when none available (Count)
system.cpu.statFuBusy::SimdShift                   42      0.01%     11.14% # attempts to use FU when none available (Count)
system.cpu.statFuBusy::SimdShiftAcc                 0      0.00%     11.14% # attempts to use FU when none available (Count)
system.cpu.statFuBusy::SimdDiv                      0      0.00%     11.14% # attempts to use FU when none available (Count)
system.cpu.statFuBusy::SimdSqrt                     0      0.00%     11.14% # attempts to use FU when none available (Count)
system.cpu.statFuBusy::SimdFloatAdd                 0      0.00%     11.14% # attempts to use FU when none available (Count)
system.cpu.statFuBusy::SimdFloatAlu                 0      0.00%     11.14% # attempts to use FU when none available (Count)
system.cpu.statFuBusy::SimdFloatCmp                 0      0.00%     11.14% # attempts to use FU when none available (Count)
system.cpu.statFuBusy::SimdFloatCvt                 0      0.00%     11.14% # attempts to use FU when none available (Count)
system.cpu.statFuBusy::SimdFloatDiv                 0      0.00%     11.14% # attempts to use FU when none available (Count)
system.cpu.statFuBusy::SimdFloatMisc                0      0.00%     11.14% # attempts to use FU when none available (Count)
system.cpu.statFuBusy::SimdFloatMult                0      0.00%     11.14% # attempts to use FU when none available (Count)
system.cpu.statFuBusy::SimdFloatMultAcc             0      0.00%     11.14% # attempts to use FU when none available (Count)
system.cpu.statFuBusy::SimdFloatSqrt                0      0.00%     11.14% # attempts to use FU when none available (Count)
system.cpu.statFuBusy::SimdReduceAdd                0      0.00%     11.14% # attempts to use FU when none available (Count)
system.cpu.statFuBusy::SimdReduceAlu                0      0.00%     11.14% # attempts to use FU when none available (Count)
system.cpu.statFuBusy::SimdReduceCmp                0      0.00%     11.14% # attempts to use FU when none available (Count)
system.cpu.statFuBusy::SimdFloatReduceAdd            0      0.00%     11.14% # attempts to use FU when none available (Count)
system.cpu.statFuBusy::SimdFloatReduceCmp            0      0.00%     11.14% # attempts to use FU when none available (Count)
system.cpu.statFuBusy::SimdAes                      0      0.00%     11.14% # attempts to use FU when none available (Count)
system.cpu.statFuBusy::SimdAesMix                   0      0.00%     11.14% # attempts to use FU when none available (Count)
system.cpu.statFuBusy::SimdSha1Hash                 0      0.00%     11.14% # attempts to use FU when none available (Count)
system.cpu.statFuBusy::SimdSha1Hash2                0      0.00%     11.14% # attempts to use FU when none available (Count)
system.cpu.statFuBusy::SimdSha256Hash               0      0.00%     11.14% # attempts to use FU when none available (Count)
system.cpu.statFuBusy::SimdSha256Hash2              0      0.00%     11.14% # attempts to use FU when none available (Count)
system.cpu.statFuBusy::SimdShaSigma2                0      0.00%     11.14% # attempts to use FU when none available (Count)
system.cpu.statFuBusy::SimdShaSigma3                0      0.00%     11.14% # attempts to use FU when none available (Count)
system.cpu.statFuBusy::SimdPredAlu                  0      0.00%     11.14% # attempts to use FU when none available (Count)
system.cpu.statFuBusy::MemRead                 499777     87.61%     98.75% # attempts to use FU when none available (Count)
system.cpu.statFuBusy::MemWrite                  6773      1.19%     99.93% # attempts to use FU when none available (Count)
system.cpu.statFuBusy::FloatMemRead               214      0.04%     99.97% # attempts to use FU when none available (Count)
system.cpu.statFuBusy::FloatMemWrite              170      0.03%    100.00% # attempts to use FU when none available (Count)
system.cpu.statFuBusy::IprAccess                    0      0.00%    100.00% # attempts to use FU when none available (Count)
system.cpu.statFuBusy::InstPrefetch                 0      0.00%    100.00% # attempts to use FU when none available (Count)
system.cpu.statIssuedInstType_0::No_OpClass      1593835      1.73%      1.73% # Number of instructions issued per FU type, per thread (Count)
system.cpu.statIssuedInstType_0::IntAlu      53665568     58.24%     59.97% # Number of instructions issued per FU type, per thread (Count)
system.cpu.statIssuedInstType_0::IntMult         1913      0.00%     59.97% # Number of instructions issued per FU type, per thread (Count)
system.cpu.statIssuedInstType_0::IntDiv         37222      0.04%     60.01% # Number of instructions issued per FU type, per thread (Count)
system.cpu.statIssuedInstType_0::FloatAdd      1842205      2.00%     62.01% # Number of instructions issued per FU type, per thread (Count)
system.cpu.statIssuedInstType_0::FloatCmp            0      0.00%     62.01% # Number of instructions issued per FU type, per thread (Count)
system.cpu.statIssuedInstType_0::FloatCvt       262394      0.28%     62.29% # Number of instructions issued per FU type, per thread (Count)
system.cpu.statIssuedInstType_0::FloatMult       262144      0.28%     62.58% # Number of instructions issued per FU type, per thread (Count)
system.cpu.statIssuedInstType_0::FloatMultAcc            0      0.00%     62.58% # Number of instructions issued per FU type, per thread (Count)
system.cpu.statIssuedInstType_0::FloatDiv            0      0.00%     62.58% # Number of instructions issued per FU type, per thread (Count)
system.cpu.statIssuedInstType_0::FloatMisc            0      0.00%     62.58% # Number of instructions issued per FU type, per thread (Count)
system.cpu.statIssuedInstType_0::FloatSqrt            0      0.00%     62.58% # Number of instructions issued per FU type, per thread (Count)
system.cpu.statIssuedInstType_0::SimdAdd         7033      0.01%     62.59% # Number of instructions issued per FU type, per thread (Count)
system.cpu.statIssuedInstType_0::SimdAddAcc            0      0.00%     62.59% # Number of instructions issued per FU type, per thread (Count)
system.cpu.statIssuedInstType_0::SimdAlu       275337      0.30%     62.88% # Number of instructions issued per FU type, per thread (Count)
system.cpu.statIssuedInstType_0::SimdCmp            8      0.00%     62.88% # Number of instructions issued per FU type, per thread (Count)
system.cpu.statIssuedInstType_0::SimdCvt        14690      0.02%     62.90% # Number of instructions issued per FU type, per thread (Count)
system.cpu.statIssuedInstType_0::SimdMisc       406485      0.44%     63.34% # Number of instructions issued per FU type, per thread (Count)
system.cpu.statIssuedInstType_0::SimdMult            0      0.00%     63.34% # Number of instructions issued per FU type, per thread (Count)
system.cpu.statIssuedInstType_0::SimdMultAcc            0      0.00%     63.34% # Number of instructions issued per FU type, per thread (Count)
system.cpu.statIssuedInstType_0::SimdShift         1075      0.00%     63.34% # Number of instructions issued per FU type, per thread (Count)
system.cpu.statIssuedInstType_0::SimdShiftAcc            0      0.00%     63.34% # Number of instructions issued per FU type, per thread (Count)
system.cpu.statIssuedInstType_0::SimdDiv            0      0.00%     63.34% # Number of instructions issued per FU type, per thread (Count)
system.cpu.statIssuedInstType_0::SimdSqrt            0      0.00%     63.34% # Number of instructions issued per FU type, per thread (Count)
system.cpu.statIssuedInstType_0::SimdFloatAdd       524291      0.57%     63.91% # Number of instructions issued per FU type, per thread (Count)
system.cpu.statIssuedInstType_0::SimdFloatAlu            0      0.00%     63.91% # Number of instructions issued per FU type, per thread (Count)
system.cpu.statIssuedInstType_0::SimdFloatCmp            0      0.00%     63.91% # Number of instructions issued per FU type, per thread (Count)
system.cpu.statIssuedInstType_0::SimdFloatCvt       393262      0.43%     64.34% # Number of instructions issued per FU type, per thread (Count)
system.cpu.statIssuedInstType_0::SimdFloatDiv       131079      0.14%     64.48% # Number of instructions issued per FU type, per thread (Count)
system.cpu.statIssuedInstType_0::SimdFloatMisc            0      0.00%     64.48% # Number of instructions issued per FU type, per thread (Count)
system.cpu.statIssuedInstType_0::SimdFloatMult       393216      0.43%     64.91% # Number of instructions issued per FU type, per thread (Count)
system.cpu.statIssuedInstType_0::SimdFloatMultAcc            0      0.00%     64.91% # Number of instructions issued per FU type, per thread (Count)
system.cpu.statIssuedInstType_0::SimdFloatSqrt            0      0.00%     64.91% # Number of instructions issued per FU type, per thread (Count)
system.cpu.statIssuedInstType_0::SimdReduceAdd            0      0.00%     64.91% # Number of instructions issued per FU type, per thread (Count)
system.cpu.statIssuedInstType_0::SimdReduceAlu            0      0.00%     64.91% # Number of instructions issued per FU type, per thread (Count)
system.cpu.statIssuedInstType_0::SimdReduceCmp            0      0.00%     64.91% # Number of instructions issued per FU type, per thread (Count)
system.cpu.statIssuedInstType_0::SimdFloatReduceAdd            0      0.00%     64.91% # Number of instructions issued per FU type, per thread (Count)
system.cpu.statIssuedInstType_0::SimdFloatReduceCmp            0      0.00%     64.91% # Number of instructions issued per FU type, per thread (Count)
system.cpu.statIssuedInstType_0::SimdAes            0      0.00%     64.91% # Number of instructions issued per FU type, per thread (Count)
system.cpu.statIssuedInstType_0::SimdAesMix            0      0.00%     64.91% # Number of instructions issued per FU type, per thread (Count)
system.cpu.statIssuedInstType_0::SimdSha1Hash            0      0.00%     64.91% # Number of instructions issued per FU type, per thread (Count)
system.cpu.statIssuedInstType_0::SimdSha1Hash2            0      0.00%     64.91% # Number of instructions issued per FU type, per thread (Count)
system.cpu.statIssuedInstType_0::SimdSha256Hash            0      0.00%     64.91% # Number of instructions issued per FU type, per thread (Count)
system.cpu.statIssuedInstType_0::SimdSha256Hash2            0      0.00%     64.91% # Number of instructions issued per FU type, per thread (Count)
system.cpu.statIssuedInstType_0::SimdShaSigma2            0      0.00%     64.91% # Number of instructions issued per FU type, per thread (Count)
system.cpu.statIssuedInstType_0::SimdShaSigma3            0      0.00%     64.91% # Number of instructions issued per FU type, per thread (Count)
system.cpu.statIssuedInstType_0::SimdPredAlu            0      0.00%     64.91% # Number of instructions issued per FU type, per thread (Count)
system.cpu.statIssuedInstType_0::MemRead     19043336     20.67%     85.57% # Number of instructions issued per FU type, per thread (Count)
system.cpu.statIssuedInstType_0::MemWrite      9593267     10.41%     95.98% # Number of instructions issued per FU type, per thread (Count)
system.cpu.statIssuedInstType_0::FloatMemRead      2377813      2.58%     98.56% # Number of instructions issued per FU type, per thread (Count)
system.cpu.statIssuedInstType_0::FloatMemWrite      1323088      1.44%    100.00% # Number of instructions issued per FU type, per thread (Count)
system.cpu.statIssuedInstType_0::IprAccess            0      0.00%    100.00% # Number of instructions issued per FU type, per thread (Count)
system.cpu.statIssuedInstType_0::InstPrefetch            0      0.00%    100.00% # Number of instructions issued per FU type, per thread (Count)
system.cpu.statIssuedInstType_0::total       92149261                       # Number of instructions issued per FU type, per thread (Count)
system.cpu.issueRate                         1.798750                       # Inst issue rate ((Count/Cycle))
system.cpu.fuBusy                              570465                       # FU busy when requested (Count)
system.cpu.fuBusyRate                        0.006191                       # FU busy rate (busy events/executed inst) ((Count/Count))
system.cpu.intInstQueueReads                217506653                       # Number of integer instruction queue reads (Count)
system.cpu.intInstQueueWrites                99691826                       # Number of integer instruction queue writes (Count)
system.cpu.intInstQueueWakeupAccesses        82224343                       # Number of integer instruction queue wakeup accesses (Count)
system.cpu.fpInstQueueReads                  18533738                       # Number of floating instruction queue reads (Count)
system.cpu.fpInstQueueWrites                  9301482                       # Number of floating instruction queue writes (Count)
system.cpu.fpInstQueueWakeupAccesses          9263442                       # Number of floating instruction queue wakeup accesses (Count)
system.cpu.vecInstQueueReads                        0                       # Number of vector instruction queue reads (Count)
system.cpu.vecInstQueueWrites                       0                       # Number of vector instruction queue writes (Count)
system.cpu.vecInstQueueWakeupAccesses               0                       # Number of vector instruction queue wakeup accesses (Count)
system.cpu.intAluAccesses                    81858426                       # Number of integer alu accesses (Count)
system.cpu.fpAluAccesses                      9267465                       # Number of floating point alu accesses (Count)
system.cpu.vecAluAccesses                           0                       # Number of vector alu accesses (Count)
system.cpu.idleCycles                               0                       # Number of cycles IEW is idle (Cycle)
system.cpu.squashCycles                        148925                       # Number of cycles IEW is squashing (Cycle)
system.cpu.blockCycles                        2009318                       # Number of cycles IEW is blocking (Cycle)
system.cpu.unblockCycles                        23876                       # Number of cycles IEW is unblocking (Cycle)
system.cpu.dispatchedInsts                   96096235                       # Number of instructions dispatched to IQ (Count)
system.cpu.dispSquashedInsts                      782                       # Number of squashed instructions skipped by dispatch (Count)
system.cpu.dispLoadInsts                     22236173                       # Number of dispatched load instructions (Count)
system.cpu.dispStoreInsts                    11311044                       # Number of dispatched store instructions (Count)
system.cpu.dispNonSpecInsts                    917748                       # Number of dispatched non-speculative instructions (Count)
system.cpu.iqFullEvents                         10575                       # Number of times the IQ has become full, causing a stall (Count)
system.cpu.lsqFullEvents                         9041                       # Number of times the LSQ has become full, causing a stall (Count)
system.cpu.memOrderViolationEvents               3310                       # Number of memory order violations (Count)
system.cpu.predictedTakenIncorrect              72576                       # Number of branches that were predicted taken incorrectly (Count)
system.cpu.predictedNotTakenIncorrect           75373                       # Number of branches that were predicted not taken incorrectly (Count)
system.cpu.branchMispredicts                   147949                       # Number of branch mispredicts detected at execute (Count)
system.cpu.numInsts                          91681441                       # Number of executed instructions (Count)
system.cpu.numLoadInsts                      21299908                       # Number of load instructions executed (Count)
system.cpu.numSquashedInsts                    467815                       # Number of squashed instructions skipped in execute (Count)
system.cpu.numSwp                                   0                       # Number of swp insts executed (Count)
system.cpu.numNop                                   0                       # Number of nop insts executed (Count)
system.cpu.numRefs                           32076095                       # Number of memory reference insts executed (Count)
system.cpu.numBranches                        6891295                       # Number of branches executed (Count)
system.cpu.numStoreInsts                     10776187                       # Number of stores executed (Count)
system.cpu.numRate                           1.789618                       # Inst execution rate ((Count/Cycle))
system.cpu.instsToCommit                     91572545                       # Cumulative count of insts sent to commit (Count)
system.cpu.writebackCount                    91487785                       # Cumulative count of insts written-back (Count)
system.cpu.producerInst                      66176282                       # Number of instructions producing a value (Count)
system.cpu.consumerInst                     108677172                       # Number of instructions consuming a value (Count)
system.cpu.wbRate                            1.785838                       # Insts written-back per cycle ((Count/Cycle))
system.cpu.wbFanout                          0.608925                       # Average fanout of values written-back ((Count/Count))
system.cpu.timesIdled                            1458                       # Number of times that the entire CPU went into an idle state and unscheduled itself (Count)
system.cpu.idleCycles                           60356                       # Total number of cycles that the CPU has spent unscheduled due to idling (Cycle)
system.cpu.committedInsts                    46698355                       # Number of Instructions Simulated (Count)
system.cpu.committedOps                      83201955                       # Number of Ops (including micro ops) Simulated (Count)
system.cpu.cpi                               1.097032                       # CPI: Cycles Per Instruction ((Cycle/Count))
system.cpu.totalCpi                          1.097032                       # CPI: Total CPI of All Threads ((Cycle/Count))
system.cpu.ipc                               0.911550                       # IPC: Instructions Per Cycle ((Count/Cycle))
system.cpu.totalIpc                          0.911550                       # IPC: Total IPC of All Threads ((Count/Cycle))
system.cpu.intRegfileReads                  144617050                       # Number of integer regfile reads (Count)
system.cpu.intRegfileWrites                  64312490                       # Number of integer regfile writes (Count)
system.cpu.fpRegfileReads                     9169724                       # Number of floating regfile reads (Count)
system.cpu.fpRegfileWrites                    7409180                       # Number of floating regfile writes (Count)
system.cpu.ccRegfileReads                    19308690                       # number of cc regfile reads (Count)
system.cpu.ccRegfileWrites                   19679685                       # number of cc regfile writes (Count)
system.cpu.miscRegfileReads                  47011028                       # number of misc regfile reads (Count)
system.cpu.miscRegfileWrites                  1835143                       # number of misc regfile writes (Count)
system.cpu.MemDepUnit__0.insertedLoads       22236173                       # Number of loads inserted to the mem dependence unit. (Count)
system.cpu.MemDepUnit__0.insertedStores      11311044                       # Number of stores inserted to the mem dependence unit. (Count)
system.cpu.MemDepUnit__0.conflictingLoads      7573239                       # Number of conflicting loads. (Count)
system.cpu.MemDepUnit__0.conflictingStores      2203755                       # Number of conflicting stores. (Count)
system.cpu.MemDepUnit__1.insertedLoads              0                       # Number of loads inserted to the mem dependence unit. (Count)
system.cpu.MemDepUnit__1.insertedStores             0                       # Number of stores inserted to the mem dependence unit. (Count)
system.cpu.MemDepUnit__1.conflictingLoads            0                       # Number of conflicting loads. (Count)
system.cpu.MemDepUnit__1.conflictingStores            0                       # Number of conflicting stores. (Count)
system.cpu.MemDepUnit__2.insertedLoads              0                       # Number of loads inserted to the mem dependence unit. (Count)
system.cpu.MemDepUnit__2.insertedStores             0                       # Number of stores inserted to the mem dependence unit. (Count)
system.cpu.MemDepUnit__2.conflictingLoads            0                       # Number of conflicting loads. (Count)
system.cpu.MemDepUnit__2.conflictingStores            0                       # Number of conflicting stores. (Count)
system.cpu.MemDepUnit__3.insertedLoads              0                       # Number of loads inserted to the mem dependence unit. (Count)
system.cpu.MemDepUnit__3.insertedStores             0                       # Number of stores inserted to the mem dependence unit. (Count)
system.cpu.MemDepUnit__3.conflictingLoads            0                       # Number of conflicting loads. (Count)
system.cpu.MemDepUnit__3.conflictingStores            0                       # Number of conflicting stores. (Count)
system.cpu.branchPred.lookups                 7477057                       # Number of BP lookups (Count)
system.cpu.branchPred.condPredicted           2754897                       # Number of conditional branches predicted (Count)
system.cpu.branchPred.condIncorrect            146070                       # Number of conditional branches incorrect (Count)
system.cpu.branchPred.BTBLookups              4253571                       # Number of BTB lookups (Count)
[...]
system.mem_ctrl.rdPerTurnAround::mean       16.001779                       # Reads before turning the bus around for writes (Count)
system.mem_ctrl.rdPerTurnAround::gmean      15.999288                       # Reads before turning the bus around for writes (Count)
system.mem_ctrl.rdPerTurnAround::stdev       0.276850                       # Reads before turning the bus around for writes (Count)
system.mem_ctrl.rdPerTurnAround::13                 1      0.18%      0.18% # Reads before turning the bus around for writes (Count)
system.mem_ctrl.rdPerTurnAround::14                 3      0.53%      0.71% # Reads before turning the bus around for writes (Count)
system.mem_ctrl.rdPerTurnAround::15                 5      0.89%      1.60% # Reads before turning the bus around for writes (Count)
system.mem_ctrl.rdPerTurnAround::16               539     95.91%     97.51% # Reads before turning the bus around for writes (Count)
system.mem_ctrl.rdPerTurnAround::17                13      2.31%     99.82% # Reads before turning the bus around for writes (Count)
system.mem_ctrl.rdPerTurnAround::18                 1      0.18%    100.00% # Reads before turning the bus around for writes (Count)
system.mem_ctrl.rdPerTurnAround::total            562                       # Reads before turning the bus around for writes (Count)
system.mem_ctrl.wrPerTurnAround::samples          562                       # Writes before turning the bus around for reads (Count)
system.mem_ctrl.wrPerTurnAround::mean       16.019573                       # Writes before turning the bus around for reads (Count)
system.mem_ctrl.wrPerTurnAround::gmean      16.018503                       # Writes before turning the bus around for reads (Count)
system.mem_ctrl.wrPerTurnAround::stdev       0.192482                       # Writes before turning the bus around for reads (Count)
system.mem_ctrl.wrPerTurnAround::16               556     98.93%     98.93% # Writes before turning the bus around for reads (Count)
system.mem_ctrl.wrPerTurnAround::17                 1      0.18%     99.11% # Writes before turning the bus around for reads (Count)
system.mem_ctrl.wrPerTurnAround::18                 5      0.89%    100.00% # Writes before turning the bus around for reads (Count)
system.mem_ctrl.wrPerTurnAround::total            562                       # Writes before turning the bus around for reads (Count)
system.mem_ctrl.bytesReadWrQ                      640                       # Total number of bytes read from write queue (Byte)
system.mem_ctrl.bytesReadSys                   575936                       # Total read bytes from the system interface side (Byte)
system.mem_ctrl.bytesWrittenSys                576000                       # Total written bytes from the system interface side (Byte)
system.mem_ctrl.avgRdBWSys               758297433.08861482                       # Average system read bandwidth in Byte/s ((Byte/Second))
system.mem_ctrl.avgWrBWSys               758381697.72169507                       # Average system write bandwidth in Byte/s ((Byte/Second))
system.mem_ctrl.totGap                      759568000                       # Total gap between requests (Tick)
system.mem_ctrl.avgGap                       42200.57                       # Average gap between requests ((Tick/Count))
system.mem_ctrl.requestorReadBytes::caches.controllers1       575296                       # Per-requestor bytes read from memory (Byte)
system.mem_ctrl.requestorWriteBytes::caches.controllers1       576192                       # Per-requestor bytes write to memory (Byte)
system.mem_ctrl.requestorReadRate::caches.controllers1 757454786.757812976837                       # Per-requestor bytes read from memory rate ((Byte/Second))
system.mem_ctrl.requestorWriteRate::caches.controllers1 758634491.620935559273                       # Per-requestor bytes write to memory rate ((Byte/Second))
system.mem_ctrl.requestorReadAccesses::caches.controllers1         8999                       # Per-requestor read serviced memory accesses (Count)
system.mem_ctrl.requestorWriteAccesses::caches.controllers1         9000                       # Per-requestor write serviced memory accesses (Count)
system.mem_ctrl.requestorReadTotalLat::caches.controllers1    275464500                       # Per-requestor read total memory access latency (Tick)
system.mem_ctrl.requestorWriteTotalLat::caches.controllers1  18842422250                       # Per-requestor write total memory access latency (Tick)
system.mem_ctrl.requestorReadAvgLat::caches.controllers1     30610.57                       # Per-requestor read average memory access latency ((Tick/Count))
system.mem_ctrl.requestorWriteAvgLat::caches.controllers1   2093602.47                       # Per-requestor write average memory access latency ((Tick/Count))
system.mem_ctrl.dram.bytesRead::caches.controllers1       575936                       # Number of bytes read from this memory (Byte)
system.mem_ctrl.dram.bytesRead::total          575936                       # Number of bytes read from this memory (Byte)
system.mem_ctrl.dram.bytesWritten::caches.controllers1       576000                       # Number of bytes written to this memory (Byte)
system.mem_ctrl.dram.bytesWritten::total       576000                       # Number of bytes written to this memory (Byte)
system.mem_ctrl.dram.numReads::caches.controllers1         8999                       # Number of read requests responded to by this memory (Count)
system.mem_ctrl.dram.numReads::total             8999                       # Number of read requests responded to by this memory (Count)
system.mem_ctrl.dram.numWrites::caches.controllers1         9000                       # Number of write requests responded to by this memory (Count)
system.mem_ctrl.dram.numWrites::total            9000                       # Number of write requests responded to by this memory (Count)
system.mem_ctrl.dram.bwRead::caches.controllers1    758297433                       # Total read bandwidth from this memory ((Byte/Second))
system.mem_ctrl.dram.bwRead::total          758297433                       # Total read bandwidth from this memory ((Byte/Second))
system.mem_ctrl.dram.bwWrite::caches.controllers1    758381698                       # Write bandwidth from this memory ((Byte/Second))
system.mem_ctrl.dram.bwWrite::total         758381698                       # Write bandwidth from this memory ((Byte/Second))
system.mem_ctrl.dram.bwTotal::caches.controllers1   1516679131                       # Total bandwidth to/from this memory ((Byte/Second))
system.mem_ctrl.dram.bwTotal::total        1516679131                       # Total bandwidth to/from this memory ((Byte/Second))
system.mem_ctrl.dram.readBursts                  8989                       # Number of DRAM read bursts (Count)
system.mem_ctrl.dram.writeBursts                 9003                       # Number of DRAM write bursts (Count)
system.mem_ctrl.dram.perBankRdBursts::0           518                       # Per bank write bursts (Count)
system.mem_ctrl.dram.perBankRdBursts::1           543                       # Per bank write bursts (Count)
system.mem_ctrl.dram.perBankRdBursts::2           583                       # Per bank write bursts (Count)
system.mem_ctrl.dram.perBankRdBursts::3           588                       # Per bank write bursts (Count)
system.mem_ctrl.dram.perBankRdBursts::4           571                       # Per bank write bursts (Count)
system.mem_ctrl.dram.perBankRdBursts::5           546                       # Per bank write bursts (Count)
system.mem_ctrl.dram.perBankRdBursts::6           545                       # Per bank write bursts (Count)
system.mem_ctrl.dram.perBankRdBursts::7           613                       # Per bank write bursts (Count)
system.mem_ctrl.dram.perBankRdBursts::8           520                       # Per bank write bursts (Count)
system.mem_ctrl.dram.perBankRdBursts::9           573                       # Per bank write bursts (Count)
system.mem_ctrl.dram.perBankRdBursts::10          553                       # Per bank write bursts (Count)
system.mem_ctrl.dram.perBankRdBursts::11          451                       # Per bank write bursts (Count)
system.mem_ctrl.dram.perBankRdBursts::12          574                       # Per bank write bursts (Count)
system.mem_ctrl.dram.perBankRdBursts::13          646                       # Per bank write bursts (Count)
system.mem_ctrl.dram.perBankRdBursts::14          638                       # Per bank write bursts (Count)
system.mem_ctrl.dram.perBankRdBursts::15          527                       # Per bank write bursts (Count)
system.mem_ctrl.dram.perBankWrBursts::0           512                       # Per bank write bursts (Count)
system.mem_ctrl.dram.perBankWrBursts::1           518                       # Per bank write bursts (Count)
system.mem_ctrl.dram.perBankWrBursts::2           521                       # Per bank write bursts (Count)
system.mem_ctrl.dram.perBankWrBursts::3           558                       # Per bank write bursts (Count)
system.mem_ctrl.dram.perBankWrBursts::4           535                       # Per bank write bursts (Count)
system.mem_ctrl.dram.perBankWrBursts::5           528                       # Per bank write bursts (Count)
system.mem_ctrl.dram.perBankWrBursts::6           534                       # Per bank write bursts (Count)
system.mem_ctrl.dram.perBankWrBursts::7           562                       # Per bank write bursts (Count)
system.mem_ctrl.dram.perBankWrBursts::8           516                       # Per bank write bursts (Count)
system.mem_ctrl.dram.perBankWrBursts::9           550                       # Per bank write bursts (Count)
system.mem_ctrl.dram.perBankWrBursts::10          530                       # Per bank write bursts (Count)
system.mem_ctrl.dram.perBankWrBursts::11          527                       # Per bank write bursts (Count)
system.mem_ctrl.dram.perBankWrBursts::12          781                       # Per bank write bursts (Count)
system.mem_ctrl.dram.perBankWrBursts::13          669                       # Per bank write bursts (Count)
system.mem_ctrl.dram.perBankWrBursts::14          647                       # Per bank write bursts (Count)
system.mem_ctrl.dram.perBankWrBursts::15          515                       # Per bank write bursts (Count)
system.mem_ctrl.dram.totQLat                106920750                       # Total ticks spent queuing (Tick)
system.mem_ctrl.dram.totBusLat               44945000                       # Total ticks spent in databus transfers (Tick)
system.mem_ctrl.dram.totMemAccLat           275464500                       # Total ticks spent from burst creation until serviced by the DRAM (Tick)
system.mem_ctrl.dram.avgQLat                 11894.62                       # Average queueing delay per DRAM burst ((Tick/Count))
system.mem_ctrl.dram.avgBusLat                5000.00                       # Average bus latency per DRAM burst ((Tick/Count))
system.mem_ctrl.dram.avgMemAccLat            30644.62                       # Average memory access latency per DRAM burst ((Tick/Count))
system.mem_ctrl.dram.readRowHits                 8143                       # Number of row buffer hits during reads (Count)
system.mem_ctrl.dram.writeRowHits                8200                       # Number of row buffer hits during writes (Count)
system.mem_ctrl.dram.readRowHitRate             90.59                       # Row buffer hit rate for reads (Ratio)
system.mem_ctrl.dram.writeRowHitRate            91.08                       # Row buffer hit rate for writes (Ratio)
system.mem_ctrl.dram.bytesPerActivate::samples         1642                       # Bytes accessed per row activation (Byte)
system.mem_ctrl.dram.bytesPerActivate::mean   700.686967                       # Bytes accessed per row activation (Byte)
system.mem_ctrl.dram.bytesPerActivate::gmean   492.884153                       # Bytes accessed per row activation (Byte)
system.mem_ctrl.dram.bytesPerActivate::stdev   399.996997                       # Bytes accessed per row activation (Byte)
system.mem_ctrl.dram.bytesPerActivate::0-127          218     13.28%     13.28% # Bytes accessed per row activation (Byte)
system.mem_ctrl.dram.bytesPerActivate::128-255          187     11.39%     24.67% # Bytes accessed per row activation (Byte)
system.mem_ctrl.dram.bytesPerActivate::256-383           90      5.48%     30.15% # Bytes accessed per row activation (Byte)
system.mem_ctrl.dram.bytesPerActivate::384-511           57      3.47%     33.62% # Bytes accessed per row activation (Byte)
system.mem_ctrl.dram.bytesPerActivate::512-639           53      3.23%     36.85% # Bytes accessed per row activation (Byte)
system.mem_ctrl.dram.bytesPerActivate::640-767           45      2.74%     39.59% # Bytes accessed per row activation (Byte)
system.mem_ctrl.dram.bytesPerActivate::768-895           49      2.98%     42.57% # Bytes accessed per row activation (Byte)
system.mem_ctrl.dram.bytesPerActivate::896-1023           59      3.59%     46.16% # Bytes accessed per row activation (Byte)
system.mem_ctrl.dram.bytesPerActivate::1024-1151          884     53.84%    100.00% # Bytes accessed per row activation (Byte)
system.mem_ctrl.dram.bytesPerActivate::total         1642                       # Bytes accessed per row activation (Byte)
system.mem_ctrl.dram.bytesRead                 575296                       # Total number of bytes read from DRAM (Byte)
system.mem_ctrl.dram.bytesWritten              576192                       # Total number of bytes written to DRAM (Byte)
system.mem_ctrl.dram.avgRdBW               757.454787                       # Average DRAM read bandwidth in MiBytes/s ((Byte/Second))
system.mem_ctrl.dram.avgWrBW               758.634492                       # Average DRAM write bandwidth in MiBytes/s ((Byte/Second))
system.mem_ctrl.dram.peakBW                  12800.00                       # Theoretical peak bandwidth in MiByte/s ((Byte/Second))
system.mem_ctrl.dram.busUtil                    11.84                       # Data bus utilization in percentage (Ratio)
system.mem_ctrl.dram.busUtilRead                 5.92                       # Data bus utilization in percentage for reads (Ratio)
system.mem_ctrl.dram.busUtilWrite                5.93                       # Data bus utilization in percentage for writes (Ratio)
system.mem_ctrl.dram.pageHitRate                90.83                       # Row buffer hit rate, read and write combined (Ratio)
system.mem_ctrl.dram.power_state.pwrStateResidencyTicks::UNDEFINED    759512000                       # Cumulative time (in ticks) in various power states (Tick)
system.mem_ctrl.dram.rank0.actEnergy          5726280                       # Energy for activate commands per rank (pJ) (Joule)
system.mem_ctrl.dram.rank0.preEnergy          3024615                       # Energy for precharge commands per rank (pJ) (Joule)
system.mem_ctrl.dram.rank0.readEnergy        32179980                       # Energy for read commands per rank (pJ) (Joule)
system.mem_ctrl.dram.rank0.writeEnergy       22278960                       # Energy for write commands per rank (pJ) (Joule)
system.mem_ctrl.dram.rank0.refreshEnergy 60234720.000000                       # Energy for refresh commands per rank (pJ) (Joule)
system.mem_ctrl.dram.rank0.actBackEnergy    240623790                       # Energy for active background per rank (pJ) (Joule)
system.mem_ctrl.dram.rank0.preBackEnergy     89022240                       # Energy for precharge background per rank (pJ) (Joule)
system.mem_ctrl.dram.rank0.actPowerDownEnergy            0                       # Energy for active power-down per rank (pJ) (Joule)
system.mem_ctrl.dram.rank0.prePowerDownEnergy            0                       # Energy for precharge power-down per rank (pJ) (Joule)
system.mem_ctrl.dram.rank0.selfRefreshEnergy            0                       # Energy for self refresh per rank (pJ) (Joule)
system.mem_ctrl.dram.rank0.totalEnergy      453090585                       # Total energy per rank (pJ) (Joule)
system.mem_ctrl.dram.rank0.averagePower    596.554873                       # Core power per rank (mW) (Watt)
system.mem_ctrl.dram.rank0.totalIdleTime            0                       # Total Idle time Per DRAM Rank (Tick)
system.mem_ctrl.dram.rank0.pwrStateTime::IDLE    227067500                       # Time in different power states (Tick)
system.mem_ctrl.dram.rank0.pwrStateTime::REF     25480000                       # Time in different power states (Tick)
system.mem_ctrl.dram.rank0.pwrStateTime::SREF            0                       # Time in different power states (Tick)
system.mem_ctrl.dram.rank0.pwrStateTime::PRE_PDN            0                       # Time in different power states (Tick)
system.mem_ctrl.dram.rank0.pwrStateTime::ACT    506964500                       # Time in different power states (Tick)
system.mem_ctrl.dram.rank0.pwrStateTime::ACT_PDN            0                       # Time in different power states (Tick)
system.mem_ctrl.dram.rank1.actEnergy          6047580                       # Energy for activate commands per rank (pJ) (Joule)
system.mem_ctrl.dram.rank1.preEnergy          3206775                       # Energy for precharge commands per rank (pJ) (Joule)
system.mem_ctrl.dram.rank1.readEnergy        32001480                       # Energy for read commands per rank (pJ) (Joule)
system.mem_ctrl.dram.rank1.writeEnergy       24716700                       # Energy for write commands per rank (pJ) (Joule)
system.mem_ctrl.dram.rank1.refreshEnergy 60234720.000000                       # Energy for refresh commands per rank (pJ) (Joule)
system.mem_ctrl.dram.rank1.actBackEnergy    237691140                       # Energy for active background per rank (pJ) (Joule)
system.mem_ctrl.dram.rank1.preBackEnergy     91491840                       # Energy for precharge background per rank (pJ) (Joule)
system.mem_ctrl.dram.rank1.actPowerDownEnergy            0                       # Energy for active power-down per rank (pJ) (Joule)
system.mem_ctrl.dram.rank1.prePowerDownEnergy            0                       # Energy for precharge power-down per rank (pJ) (Joule)
system.mem_ctrl.dram.rank1.selfRefreshEnergy            0                       # Energy for self refresh per rank (pJ) (Joule)
system.mem_ctrl.dram.rank1.totalEnergy      455390235                       # Total energy per rank (pJ) (Joule)
system.mem_ctrl.dram.rank1.averagePower    599.582673                       # Core power per rank (mW) (Watt)
system.mem_ctrl.dram.rank1.totalIdleTime            0                       # Total Idle time Per DRAM Rank (Tick)
system.mem_ctrl.dram.rank1.pwrStateTime::IDLE    233629250                       # Time in different power states (Tick)
system.mem_ctrl.dram.rank1.pwrStateTime::REF     25480000                       # Time in different power states (Tick)
system.mem_ctrl.dram.rank1.pwrStateTime::SREF            0                       # Time in different power states (Tick)
system.mem_ctrl.dram.rank1.pwrStateTime::PRE_PDN            0                       # Time in different power states (Tick)
system.mem_ctrl.dram.rank1.pwrStateTime::ACT    500402750                       # Time in different power states (Tick)
system.mem_ctrl.dram.rank1.pwrStateTime::ACT_PDN            0                       # Time in different power states (Tick)
system.mem_ctrl.power_state.pwrStateResidencyTicks::UNDEFINED    759512000                       # Cumulative time (in ticks) in various power states (Tick)
system.workload.inst.arm                            0                       # number of arm instructions executed (Count)
system.workload.inst.quiesce                        0                       # number of quiesce instructions executed (Count)

---------- End Simulation Statistics   ----------
