
---------- Begin Simulation Statistics ----------
simSeconds                                   0.011960                       # Number of seconds simulated (Second)
simTicks                                  11959728000                       # Number of ticks simulated (Tick)
finalTick                                 21707465000                       # Number of ticks from beginning of simulation (restored from checkpoints and never reset) (Tick)
simFreq                                  1000000000000                       # The number of ticks per simulated second ((Tick/Second))
hostSeconds                                     29.23                       # Real time elapsed on the host (Second)
hostTickRate                                409108407                       # The number of ticks simulated per host second (ticks/s) ((Tick/Second))
hostMemory                                    9646224                       # Number of bytes of host memory used (Byte)
simInsts                                      6464554                       # Number of instructions simulated (Count)
simOps                                       12337784                       # Number of ops (including micro ops) simulated (Count)
hostInstRate                                   221133                       # Simulator instruction rate (inst/s) ((Count/Second))
hostOpRate                                     422038                       # Simulator op (including micro ops) rate (op/s) ((Count/Second))
system.caches.delayHistogram::bucket_size            8                       # delay histogram for all message (Unspecified)
system.caches.delayHistogram::max_bucket           79                       # delay histogram for all message (Unspecified)
system.caches.delayHistogram::samples          862184                       # delay histogram for all message (Unspecified)
system.caches.delayHistogram::mean           0.398530                       # delay histogram for all message (Unspecified)
system.caches.delayHistogram::stdev          1.948365                       # delay histogram for all message (Unspecified)
system.caches.delayHistogram             |      853429     98.98%     98.98% |        5652      0.66%     99.64% |        1905      0.22%     99.86% |         790      0.09%     99.95% |         257      0.03%     99.98% |          92      0.01%     99.99% |          43      0.00%    100.00% |          14      0.00%    100.00% |           1      0.00%    100.00% |           1      0.00%    100.00% # delay histogram for all message (Unspecified)
system.caches.delayHistogram::total            862184                       # delay histogram for all message (Unspecified)
system.caches.m_outstandReqHistSeqr::bucket_size            1                       (Unspecified)
system.caches.m_outstandReqHistSeqr::max_bucket            9                       (Unspecified)
system.caches.m_outstandReqHistSeqr::samples      1048587                       (Unspecified)
system.caches.m_outstandReqHistSeqr::mean     1.000031                       (Unspecified)
system.caches.m_outstandReqHistSeqr::gmean     1.000021                       (Unspecified)
system.caches.m_outstandReqHistSeqr::stdev     0.005859                       (Unspecified)
system.caches.m_outstandReqHistSeqr      |           0      0.00%      0.00% |     1048557    100.00%    100.00% |          28      0.00%    100.00% |           2      0.00%    100.00% |           0      0.00%    100.00% |           0      0.00%    100.00% |           0      0.00%    100.00% |           0      0.00%    100.00% |           0      0.00%    100.00% |           0      0.00%    100.00% (Unspecified)
system.caches.m_outstandReqHistSeqr::total      1048587                       (Unspecified)
system.caches.m_latencyHistSeqr::bucket_size           64                       (Unspecified)
system.caches.m_latencyHistSeqr::max_bucket          639                       (Unspecified)
system.caches.m_latencyHistSeqr::samples      1048587                       (Unspecified)
system.caches.m_latencyHistSeqr::mean        9.405955                       (Unspecified)
system.caches.m_latencyHistSeqr::gmean       1.678687                       (Unspecified)
system.caches.m_latencyHistSeqr::stdev      26.349043                       (Unspecified)
system.caches.m_latencyHistSeqr          |     1033020     98.52%     98.52% |        5877      0.56%     99.08% |        4826      0.46%     99.54% |        3328      0.32%     99.85% |        1233      0.12%     99.97% |         281      0.03%    100.00% |           3      0.00%    100.00% |          11      0.00%    100.00% |           8      0.00%    100.00% |           0      0.00%    100.00% (Unspecified)
system.caches.m_latencyHistSeqr::total        1048587                       (Unspecified)
system.caches.m_hitLatencyHistSeqr::bucket_size            1                       (Unspecified)
system.caches.m_hitLatencyHistSeqr::max_bucket            9                       (Unspecified)
system.caches.m_hitLatencyHistSeqr::samples       917508                       (Unspecified)
system.caches.m_hitLatencyHistSeqr::mean            1                       (Unspecified)
system.caches.m_hitLatencyHistSeqr::gmean            1                       (Unspecified)
system.caches.m_hitLatencyHistSeqr       |           0      0.00%      0.00% |      917508    100.00%    100.00% |           0      0.00%    100.00% |           0      0.00%    100.00% |           0      0.00%    100.00% |           0      0.00%    100.00% |           0      0.00%    100.00% |           0      0.00%    100.00% |           0      0.00%    100.00% |           0      0.00%    100.00% (Unspecified)
system.caches.m_hitLatencyHistSeqr::total       917508                       (Unspecified)
system.caches.m_missLatencyHistSeqr::bucket_size           64                       (Unspecified)
system.caches.m_missLatencyHistSeqr::max_bucket          639                       (Unspecified)
system.caches.m_missLatencyHistSeqr::samples       131079                       (Unspecified)
system.caches.m_missLatencyHistSeqr::mean    68.244753                       (Unspecified)
system.caches.m_missLatencyHistSeqr::gmean    63.049429                       (Unspecified)
system.caches.m_missLatencyHistSeqr::stdev    39.966795                       (Unspecified)
system.caches.m_missLatencyHistSeqr      |      115512     88.12%     88.12% |        5877      4.48%     92.61% |        4826      3.68%     96.29% |        3328      2.54%     98.83% |        1233      0.94%     99.77% |         281      0.21%     99.98% |           3      0.00%     99.99% |          11      0.01%     99.99% |           8      0.01%    100.00% |           0      0.00%    100.00% (Unspecified)
system.caches.m_missLatencyHistSeqr::total       131079                       (Unspecified)
system.caches.delayVCHist.vnet_1::bucket_size            4                       # delay histogram for vnet_1 (Unspecified)
system.caches.delayVCHist.vnet_1::max_bucket           39                       # delay histogram for vnet_1 (Unspecified)
system.caches.delayVCHist.vnet_1::samples       431108                       # delay histogram for vnet_1 (Unspecified)
system.caches.delayVCHist.vnet_1::mean       0.119237                       # delay histogram for vnet_1 (Unspecified)
system.caches.delayVCHist.vnet_1::stdev      0.883753                       # delay histogram for vnet_1 (Unspecified)
system.caches.delayVCHist.vnet_1         |      423780     98.30%     98.30% |        4641      1.08%     99.38% |        2461      0.57%     99.95% |         127      0.03%     99.98% |          89      0.02%    100.00% |           7      0.00%    100.00% |           3      0.00%    100.00% |           0      0.00%    100.00% |           0      0.00%    100.00% |           0      0.00%    100.00% # delay histogram for vnet_1 (Unspecified)
system.caches.delayVCHist.vnet_1::total        431108                       # delay histogram for vnet_1 (Unspecified)
system.caches.delayVCHist.vnet_2::bucket_size            8                       # delay histogram for vnet_2 (Unspecified)
system.caches.delayVCHist.vnet_2::max_bucket           79                       # delay histogram for vnet_2 (Unspecified)
system.caches.delayVCHist.vnet_2::samples       431076                       # delay histogram for vnet_2 (Unspecified)
system.caches.delayVCHist.vnet_2::mean       0.677843                       # delay histogram for vnet_2 (Unspecified)
system.caches.delayVCHist.vnet_2::stdev      2.579814                       # delay histogram for vnet_2 (Unspecified)
system.caches.delayVCHist.vnet_2         |      425008     98.59%     98.59% |        3064      0.71%     99.30% |        1809      0.42%     99.72% |         787      0.18%     99.91% |         257      0.06%     99.96% |          92      0.02%     99.99% |          43      0.01%    100.00% |          14      0.00%    100.00% |           1      0.00%    100.00% |           1      0.00%    100.00% # delay histogram for vnet_2 (Unspecified)
system.caches.delayVCHist.vnet_2::total        431076                       # delay histogram for vnet_2 (Unspecified)
system.caches.L1Cache_Controller.Load         1560107      0.00%      0.00% (Unspecified)
system.caches.L1Cache_Controller.Ifetch        309034      0.00%      0.00% (Unspecified)
system.caches.L1Cache_Controller.Store         212168      0.00%      0.00% (Unspecified)
system.caches.L1Cache_Controller.Data          431108      0.00%      0.00% (Unspecified)
system.caches.L1Cache_Controller.Replacement       431077      0.00%      0.00% (Unspecified)
system.caches.L1Cache_Controller.Writeback_Ack       431076      0.00%      0.00% (Unspecified)
system.caches.L1Cache_Controller.I.Load        271842      0.00%      0.00% (Unspecified)
system.caches.L1Cache_Controller.I.Ifetch       123979      0.00%      0.00% (Unspecified)
system.caches.L1Cache_Controller.I.Store        35288      0.00%      0.00% (Unspecified)
system.caches.L1Cache_Controller.M.Load       1288265      0.00%      0.00% (Unspecified)
system.caches.L1Cache_Controller.M.Ifetch       185055      0.00%      0.00% (Unspecified)
system.caches.L1Cache_Controller.M.Store       176880      0.00%      0.00% (Unspecified)
system.caches.L1Cache_Controller.M.Replacement       431077      0.00%      0.00% (Unspecified)
system.caches.L1Cache_Controller.MI.Writeback_Ack       431076      0.00%      0.00% (Unspecified)
system.caches.L1Cache_Controller.IS.Data       395820      0.00%      0.00% (Unspecified)
system.caches.L1Cache_Controller.IM.Data        35288      0.00%      0.00% (Unspecified)
system.caches.Directory_Controller.GETX        431109      0.00%      0.00% (Unspecified)
system.caches.Directory_Controller.PUTX        431077      0.00%      0.00% (Unspecified)
system.caches.Directory_Controller.Memory_Data       431108      0.00%      0.00% (Unspecified)
system.caches.Directory_Controller.Memory_Ack       431076      0.00%      0.00% (Unspecified)
system.caches.Directory_Controller.I.GETX       431109      0.00%      0.00% (Unspecified)
system.caches.Directory_Controller.M.PUTX       431077      0.00%      0.00% (Unspecified)
system.caches.Directory_Controller.IM.Memory_Data       431108      0.00%      0.00% (Unspecified)
system.caches.Directory_Controller.MI.Memory_Ack       431076      0.00%      0.00% (Unspecified)
system.caches.MachineType.Directory.miss_mach_latency_hist_seqr::bucket_size           64                       (Unspecified)
system.caches.MachineType.Directory.miss_mach_latency_hist_seqr::max_bucket          639                       (Unspecified)
system.caches.MachineType.Directory.miss_mach_latency_hist_seqr::samples       131079                       (Unspecified)
system.caches.MachineType.Directory.miss_mach_latency_hist_seqr::mean    68.244753                       (Unspecified)
system.caches.MachineType.Directory.miss_mach_latency_hist_seqr::gmean    63.049429                       (Unspecified)
system.caches.MachineType.Directory.miss_mach_latency_hist_seqr::stdev    39.966795                       (Unspecified)
system.caches.MachineType.Directory.miss_mach_latency_hist_seqr |      115512     88.12%     88.12% |        5877      4.48%     92.61% |        4826      3.68%     96.29% |        3328      2.54%     98.83% |        1233      0.94%     99.77% |         281      0.21%     99.98% |           3      0.00%     99.99% |          11      0.01%     99.99% |           8      0.01%    100.00% |           0      0.00%    100.00% (Unspecified)
system.caches.MachineType.Directory.miss_mach_latency_hist_seqr::total       131079                       (Unspecified)
system.caches.MachineType.Directory.incomplete_times_seqr       431107                       (Unspecified)
system.caches.RequestType.LD.latency_hist_seqr::bucket_size           64                       (Unspecified)
system.caches.RequestType.LD.latency_hist_seqr::max_bucket          639                       (Unspecified)
system.caches.RequestType.LD.latency_hist_seqr::samples      1048579                       (Unspecified)
system.caches.RequestType.LD.latency_hist_seqr::mean     9.405638                       (Unspecified)
system.caches.RequestType.LD.latency_hist_seqr::gmean     1.678653                       (Unspecified)
system.caches.RequestType.LD.latency_hist_seqr::stdev    26.348766                       (Unspecified)
system.caches.RequestType.LD.latency_hist_seqr |     1033016     98.52%     98.52% |        5873      0.56%     99.08% |        4826      0.46%     99.54% |        3328      0.32%     99.85% |        1233      0.12%     99.97% |         281      0.03%    100.00% |           3      0.00%    100.00% |          11      0.00%    100.00% |           8      0.00%    100.00% |           0      0.00%    100.00% (Unspecified)
system.caches.RequestType.LD.latency_hist_seqr::total      1048579                       (Unspecified)
system.caches.RequestType.LD.hit_latency_hist_seqr::bucket_size            1                       (Unspecified)
system.caches.RequestType.LD.hit_latency_hist_seqr::max_bucket            9                       (Unspecified)
system.caches.RequestType.LD.hit_latency_hist_seqr::samples       917506                       (Unspecified)
system.caches.RequestType.LD.hit_latency_hist_seqr::mean            1                       (Unspecified)
system.caches.RequestType.LD.hit_latency_hist_seqr::gmean            1                       (Unspecified)
system.caches.RequestType.LD.hit_latency_hist_seqr |           0      0.00%      0.00% |      917506    100.00%    100.00% |           0      0.00%    100.00% |           0      0.00%    100.00% |           0      0.00%    100.00% |           0      0.00%    100.00% |           0      0.00%    100.00% |           0      0.00%    100.00% |           0      0.00%    100.00% |           0      0.00%    100.00% (Unspecified)
system.caches.RequestType.LD.hit_latency_hist_seqr::total       917506                       (Unspecified)
system.caches.RequestType.LD.miss_latency_hist_seqr::bucket_size           64                       (Unspecified)
system.caches.RequestType.LD.miss_latency_hist_seqr::max_bucket          639                       (Unspecified)
system.caches.RequestType.LD.miss_latency_hist_seqr::samples       131073                       (Unspecified)
system.caches.RequestType.LD.miss_latency_hist_seqr::mean    68.244780                       (Unspecified)
system.caches.RequestType.LD.miss_latency_hist_seqr::gmean    63.049245                       (Unspecified)
system.caches.RequestType.LD.miss_latency_hist_seqr::stdev    39.967674                       (Unspecified)
system.caches.RequestType.LD.miss_latency_hist_seqr |      115510     88.13%     88.13% |        5873      4.48%     92.61% |        4826      3.68%     96.29% |        3328      2.54%     98.83% |        1233      0.94%     99.77% |         281      0.21%     99.98% |           3      0.00%     99.99% |          11      0.01%     99.99% |           8      0.01%    100.00% |           0      0.00%    100.00% (Unspecified)
system.caches.RequestType.LD.miss_latency_hist_seqr::total       131073                       (Unspecified)
system.caches.RequestType.ST.latency_hist_seqr::bucket_size            8                       (Unspecified)
system.caches.RequestType.ST.latency_hist_seqr::max_bucket           79                       (Unspecified)
system.caches.RequestType.ST.latency_hist_seqr::samples            1                       (Unspecified)
system.caches.RequestType.ST.latency_hist_seqr::mean           77                       (Unspecified)
system.caches.RequestType.ST.latency_hist_seqr::gmean    77.000000                       (Unspecified)
system.caches.RequestType.ST.latency_hist_seqr::stdev          nan                       (Unspecified)
system.caches.RequestType.ST.latency_hist_seqr |           0      0.00%      0.00% |           0      0.00%      0.00% |           0      0.00%      0.00% |           0      0.00%      0.00% |           0      0.00%      0.00% |           0      0.00%      0.00% |           0      0.00%      0.00% |           0      0.00%      0.00% |           0      0.00%      0.00% |           1    100.00%    100.00% (Unspecified)
system.caches.RequestType.ST.latency_hist_seqr::total            1                       (Unspecified)
system.caches.RequestType.ST.miss_latency_hist_seqr::bucket_size            8                       (Unspecified)
system.caches.RequestType.ST.miss_latency_hist_seqr::max_bucket           79                       (Unspecified)
system.caches.RequestType.ST.miss_latency_hist_seqr::samples            1                       (Unspecified)
system.caches.RequestType.ST.miss_latency_hist_seqr::mean           77                       (Unspecified)
system.caches.RequestType.ST.miss_latency_hist_seqr::gmean    77.000000                       (Unspecified)
system.caches.RequestType.ST.miss_latency_hist_seqr::stdev          nan                       (Unspecified)
system.caches.RequestType.ST.miss_latency_hist_seqr |           0      0.00%      0.00% |           0      0.00%      0.00% |           0      0.00%      0.00% |           0      0.00%      0.00% |           0      0.00%      0.00% |           0      0.00%      0.00% |           0      0.00%      0.00% |           0      0.00%      0.00% |           0      0.00%      0.00% |           1    100.00%    100.00% (Unspecified)
system.caches.RequestType.ST.miss_latency_hist_seqr::total            1                       (Unspecified)
system.caches.RequestType.IFETCH.latency_hist_seqr::bucket_size            8                       (Unspecified)
system.caches.RequestType.IFETCH.latency_hist_seqr::max_bucket           79                       (Unspecified)
system.caches.RequestType.IFETCH.latency_hist_seqr::samples            7                       (Unspecified)
system.caches.RequestType.IFETCH.latency_hist_seqr::mean    47.285714                       (Unspecified)
system.caches.RequestType.IFETCH.latency_hist_seqr::gmean    19.806077                       (Unspecified)
system.caches.RequestType.IFETCH.latency_hist_seqr::stdev    32.299197                       (Unspecified)
system.caches.RequestType.IFETCH.latency_hist_seqr |           2     28.57%     28.57% |           0      0.00%     28.57% |           0      0.00%     28.57% |           0      0.00%     28.57% |           0      0.00%     28.57% |           0      0.00%     28.57% |           0      0.00%     28.57% |           2     28.57%     57.14% |           2     28.57%     85.71% |           1     14.29%    100.00% (Unspecified)
system.caches.RequestType.IFETCH.latency_hist_seqr::total            7                       (Unspecified)
system.caches.RequestType.IFETCH.hit_latency_hist_seqr::bucket_size            1                       (Unspecified)
system.caches.RequestType.IFETCH.hit_latency_hist_seqr::max_bucket            9                       (Unspecified)
system.caches.RequestType.IFETCH.hit_latency_hist_seqr::samples            2                       (Unspecified)
system.caches.RequestType.IFETCH.hit_latency_hist_seqr::mean            1                       (Unspecified)
system.caches.RequestType.IFETCH.hit_latency_hist_seqr::gmean            1                       (Unspecified)
system.caches.RequestType.IFETCH.hit_latency_hist_seqr |           0      0.00%      0.00% |           2    100.00%    100.00% |           0      0.00%    100.00% |           0      0.00%    100.00% |           0      0.00%    100.00% |           0      0.00%    100.00% |           0      0.00%    100.00% |           0      0.00%    100.00% |           0      0.00%    100.00% |           0      0.00%    100.00% (Unspecified)
system.caches.RequestType.IFETCH.hit_latency_hist_seqr::total            2                       (Unspecified)
system.caches.RequestType.IFETCH.miss_latency_hist_seqr::bucket_size            8                       (Unspecified)
system.caches.RequestType.IFETCH.miss_latency_hist_seqr::max_bucket           79                       (Unspecified)
system.caches.RequestType.IFETCH.miss_latency_hist_seqr::samples            5                       (Unspecified)
system.caches.RequestType.IFETCH.miss_latency_hist_seqr::mean    65.800000                       (Unspecified)
system.caches.RequestType.IFETCH.miss_latency_hist_seqr::gmean    65.390981                       (Unspecified)
system.caches.RequestType.IFETCH.miss_latency_hist_seqr::stdev     8.074652                       (Unspecified)
system.caches.RequestType.IFETCH.miss_latency_hist_seqr |           0      0.00%      0.00% |           0      0.00%      0.00% |           0      0.00%      0.00% |           0      0.00%      0.00% |           0      0.00%      0.00% |           0      0.00%      0.00% |           0      0.00%      0.00% |           2     40.00%     40.00% |           2     40.00%     80.00% |           1     20.00%    100.00% (Unspecified)
system.caches.RequestType.IFETCH.miss_latency_hist_seqr::total            5                       (Unspecified)
system.caches.RequestTypeMachineType.LD.Directory.miss_type_mach_latency_hist_seqr::bucket_size           64                       (Unspecified)
system.caches.RequestTypeMachineType.LD.Directory.miss_type_mach_latency_hist_seqr::max_bucket          639                       (Unspecified)
system.caches.RequestTypeMachineType.LD.Directory.miss_type_mach_latency_hist_seqr::samples       131073                       (Unspecified)
system.caches.RequestTypeMachineType.LD.Directory.miss_type_mach_latency_hist_seqr::mean    68.244780                       (Unspecified)
system.caches.RequestTypeMachineType.LD.Directory.miss_type_mach_latency_hist_seqr::gmean    63.049245                       (Unspecified)
system.caches.RequestTypeMachineType.LD.Directory.miss_type_mach_latency_hist_seqr::stdev    39.967674                       (Unspecified)
system.caches.RequestTypeMachineType.LD.Directory.miss_type_mach_latency_hist_seqr |      115510     88.13%     88.13% |        5873      4.48%     92.61% |        4826      3.68%     96.29% |        3328      2.54%     98.83% |        1233      0.94%     99.77% |         281      0.21%     99.98% |           3      0.00%     99.99% |          11      0.01%     99.99% |           8      0.01%    100.00% |           0      0.00%    100.00% (Unspecified)
system.caches.RequestTypeMachineType.LD.Directory.miss_type_mach_latency_hist_seqr::total       131073                       (Unspecified)
system.caches.RequestTypeMachineType.ST.Directory.miss_type_mach_latency_hist_seqr::bucket_size            8                       (Unspecified)
system.caches.RequestTypeMachineType.ST.Directory.miss_type_mach_latency_hist_seqr::max_bucket           79                       (Unspecified)
system.caches.RequestTypeMachineType.ST.Directory.miss_type_mach_latency_hist_seqr::samples            1                       (Unspecified)
system.caches.RequestTypeMachineType.ST.Directory.miss_type_mach_latency_hist_seqr::mean           77                       (Unspecified)
system.caches.RequestTypeMachineType.ST.Directory.miss_type_mach_latency_hist_seqr::gmean    77.000000                       (Unspecified)
system.caches.RequestTypeMachineType.ST.Directory.miss_type_mach_latency_hist_seqr::stdev          nan                       (Unspecified)
system.caches.RequestTypeMachineType.ST.Directory.miss_type_mach_latency_hist_seqr |           0      0.00%      0.00% |           0      0.00%      0.00% |           0      0.00%      0.00% |           0      0.00%      0.00% |           0      0.00%      0.00% |           0      0.00%      0.00% |           0      0.00%      0.00% |           0      0.00%      0.00% |           0      0.00%      0.00% |           1    100.00%    100.00% (Unspecified)
system.caches.RequestTypeMachineType.ST.Directory.miss_type_mach_latency_hist_seqr::total            1                       (Unspecified)
system.caches.RequestTypeMachineType.IFETCH.Directory.miss_type_mach_latency_hist_seqr::bucket_size            8                       (Unspecified)
system.caches.RequestTypeMachineType.IFETCH.Directory.miss_type_mach_latency_hist_seqr::max_bucket           79                       (Unspecified)
system.caches.RequestTypeMachineType.IFETCH.Directory.miss_type_mach_latency_hist_seqr::samples            5                       (Unspecified)
system.caches.RequestTypeMachineType.IFETCH.Directory.miss_type_mach_latency_hist_seqr::mean    65.800000                       (Unspecified)
system.caches.RequestTypeMachineType.IFETCH.Directory.miss_type_mach_latency_hist_seqr::gmean    65.390981                       (Unspecified)
system.caches.RequestTypeMachineType.IFETCH.Directory.miss_type_mach_latency_hist_seqr::stdev     8.074652                       (Unspecified)
system.caches.RequestTypeMachineType.IFETCH.Directory.miss_type_mach_latency_hist_seqr |           0      0.00%      0.00% |           0      0.00%      0.00% |           0      0.00%      0.00% |           0      0.00%      0.00% |           0      0.00%      0.00% |           0      0.00%      0.00% |           0      0.00%      0.00% |           2     40.00%     40.00% |           2     40.00%     80.00% |           1     20.00%    100.00% (Unspecified)
system.caches.RequestTypeMachineType.IFETCH.Directory.miss_type_mach_latency_hist_seqr::total            5                       (Unspecified)
system.caches.controllers0.delayHistogram::samples       862184                       # delay_histogram (Unspecified)
system.caches.controllers0.delayHistogram::mean     0.398530                       # delay_histogram (Unspecified)
system.caches.controllers0.delayHistogram::stdev     1.948365                       # delay_histogram (Unspecified)
system.caches.controllers0.delayHistogram::0-7       853429     98.98%     98.98% # delay_histogram (Unspecified)
system.caches.controllers0.delayHistogram::8-15         5652      0.66%     99.64% # delay_histogram (Unspecified)
system.caches.controllers0.delayHistogram::16-23         1905      0.22%     99.86% # delay_histogram (Unspecified)
system.caches.controllers0.delayHistogram::24-31          790      0.09%     99.95% # delay_histogram (Unspecified)
system.caches.controllers0.delayHistogram::32-39          257      0.03%     99.98% # delay_histogram (Unspecified)
system.caches.controllers0.delayHistogram::40-47           92      0.01%     99.99% # delay_histogram (Unspecified)
system.caches.controllers0.delayHistogram::48-55           43      0.00%    100.00% # delay_histogram (Unspecified)
system.caches.controllers0.delayHistogram::56-63           14      0.00%    100.00% # delay_histogram (Unspecified)
system.caches.controllers0.delayHistogram::64-71            1      0.00%    100.00% # delay_histogram (Unspecified)
system.caches.controllers0.delayHistogram::72-79            1      0.00%    100.00% # delay_histogram (Unspecified)
system.caches.controllers0.delayHistogram::total       862184                       # delay_histogram (Unspecified)
system.caches.controllers0.cacheMemory.m_demand_hits      1650200                       # Number of cache demand hits (Unspecified)
system.caches.controllers0.cacheMemory.m_demand_misses       431109                       # Number of cache demand misses (Unspecified)
system.caches.controllers0.cacheMemory.m_demand_accesses      2081309                       # Number of cache demand accesses (Unspecified)
system.caches.controllers0.forwardToCache.m_buf_msgs     0.019858                       # Average number of messages in buffer (Unspecified)
system.caches.controllers0.forwardToCache.m_stall_time  5152.975808                       # Average number of cycles messages are stalled in this MB (Unspecified)
system.caches.controllers0.mandatoryQueue.m_buf_msgs     0.117748                       # Average number of messages in buffer (Unspecified)
system.caches.controllers0.mandatoryQueue.m_stall_time  1181.334301                       # Average number of cycles messages are stalled in this MB (Unspecified)
system.caches.controllers0.power_state.pwrStateResidencyTicks::UNDEFINED  21707465000                       # Cumulative time (in ticks) in various power states (Tick)
system.caches.controllers0.requestFromCache.m_buf_msgs     0.079437                       # Average number of messages in buffer (Unspecified)
system.caches.controllers0.requestFromCache.m_stall_time  1999.999724                       # Average number of cycles messages are stalled in this MB (Unspecified)
system.caches.controllers0.responseToCache.m_buf_msgs     0.019860                       # Average number of messages in buffer (Unspecified)
system.caches.controllers0.responseToCache.m_stall_time  5031.928417                       # Average number of cycles messages are stalled in this MB (Unspecified)
system.caches.controllers1.forwardFromDir.m_buf_msgs     0.019858                       # Average number of messages in buffer (Unspecified)
system.caches.controllers1.forwardFromDir.m_stall_time   999.961350                       # Average number of cycles messages are stalled in this MB (Unspecified)
system.caches.controllers1.power_state.pwrStateResidencyTicks::UNDEFINED  21707465000                       # Cumulative time (in ticks) in various power states (Tick)
system.caches.controllers1.requestToDir.m_buf_msgs     0.039718                       # Average number of messages in buffer (Unspecified)
system.caches.controllers1.requestToDir.m_stall_time 10196.175187                       # Average number of cycles messages are stalled in this MB (Unspecified)
system.caches.controllers1.requestToMemory.m_buf_msgs     0.039934                       # Average number of messages in buffer (Unspecified)
system.caches.controllers1.requestToMemory.m_stall_time  1001.004539                       # Average number of cycles messages are stalled in this MB (Unspecified)
system.caches.controllers1.responseFromDir.m_buf_msgs     0.019860                       # Average number of messages in buffer (Unspecified)
system.caches.controllers1.responseFromDir.m_stall_time   999.996821                       # Average number of cycles messages are stalled in this MB (Unspecified)
system.caches.controllers1.responseFromMemory.m_buf_msgs     0.045126                       # Average number of messages in buffer (Unspecified)
system.caches.controllers1.responseFromMemory.m_stall_time   999.996867                       # Average number of cycles messages are stalled in this MB (Unspecified)
system.caches.network.msg_count.Control        862218                       (Unspecified)
system.caches.network.msg_byte.Control        6897744                       (Unspecified)
system.caches.network.msg_count.Data           862154                       (Unspecified)
system.caches.network.msg_byte.Data          62075088                       (Unspecified)
system.caches.network.msg_count.Response_Data       862216                       (Unspecified)
system.caches.network.msg_byte.Response_Data     62079552                       (Unspecified)
system.caches.network.msg_count.Writeback_Control       862152                       (Unspecified)
system.caches.network.msg_byte.Writeback_Control      6897216                       (Unspecified)
system.caches.network.int_link_buffers2.m_buf_msgs     0.021920                       # Average number of messages in buffer (Unspecified)
system.caches.network.int_link_buffers2.m_stall_time  7824.674106                       # Average number of cycles messages are stalled in this MB (Unspecified)
system.caches.network.int_link_buffers8.m_buf_msgs     0.010960                       # Average number of messages in buffer (Unspecified)
system.caches.network.int_link_buffers8.m_stall_time         3000                       # Average number of cycles messages are stalled in this MB (Unspecified)
system.caches.network.int_link_buffers9.m_buf_msgs     0.010960                       # Average number of messages in buffer (Unspecified)
system.caches.network.int_link_buffers9.m_stall_time         3000                       # Average number of cycles messages are stalled in this MB (Unspecified)
system.caches.network.power_state.pwrStateResidencyTicks::UNDEFINED  21707465000                       # Cumulative time (in ticks) in various power states (Tick)
system.caches.network.routers0.percent_links_utilized     5.480033                       (Unspecified)
system.caches.network.routers0.msg_count.Control::2       431109                       (Unspecified)
system.caches.network.routers0.msg_bytes.Control::2      3448872                       (Unspecified)
system.caches.network.routers0.msg_count.Data::2       431077                       (Unspecified)
system.caches.network.routers0.msg_bytes.Data::2     31037544                       (Unspecified)
system.caches.network.routers0.msg_count.Response_Data::4       431108                       (Unspecified)
system.caches.network.routers0.msg_bytes.Response_Data::4     31039776                       (Unspecified)
system.caches.network.routers0.msg_count.Writeback_Control::3       431076                       (Unspecified)
system.caches.network.routers0.msg_bytes.Writeback_Control::3      3448608                       (Unspecified)
system.caches.network.routers0.port_buffers3.m_buf_msgs     0.019858                       # Average number of messages in buffer (Unspecified)
system.caches.network.routers0.port_buffers3.m_stall_time  4153.014827                       # Average number of cycles messages are stalled in this MB (Unspecified)
system.caches.network.routers0.port_buffers4.m_buf_msgs     0.019860                       # Average number of messages in buffer (Unspecified)
system.caches.network.routers0.port_buffers4.m_stall_time  4031.931964                       # Average number of cycles messages are stalled in this MB (Unspecified)
system.caches.network.routers0.port_buffers7.m_buf_msgs     0.154327                       # Average number of messages in buffer (Unspecified)
system.caches.network.routers0.port_buffers7.m_stall_time  7196.177122                       # Average number of cycles messages are stalled in this MB (Unspecified)
system.caches.network.routers0.power_state.pwrStateResidencyTicks::UNDEFINED  21707465000                       # Cumulative time (in ticks) in various power states (Tick)
system.caches.network.routers0.throttle00.link_utilization     5.480016                       (Unspecified)
system.caches.network.routers0.throttle00.msg_count.Response_Data::4       431108                       (Unspecified)
system.caches.network.routers0.throttle00.msg_bytes.Response_Data::4     31039776                       (Unspecified)
system.caches.network.routers0.throttle00.msg_count.Writeback_Control::3       431076                       (Unspecified)
system.caches.network.routers0.throttle00.msg_bytes.Writeback_Control::3      3448608                       (Unspecified)
system.caches.network.routers0.throttle01.link_utilization     5.480049                       (Unspecified)
system.caches.network.routers0.throttle01.msg_count.Control::2       431109                       (Unspecified)
system.caches.network.routers0.throttle01.msg_bytes.Control::2      3448872                       (Unspecified)
system.caches.network.routers0.throttle01.msg_count.Data::2       431077                       (Unspecified)
system.caches.network.routers0.throttle01.msg_bytes.Data::2     31037544                       (Unspecified)
system.caches.network.routers1.percent_links_utilized     5.480037                       (Unspecified)
system.caches.network.routers1.msg_count.Control::2       431109                       (Unspecified)
system.caches.network.routers1.msg_bytes.Control::2      3448872                       (Unspecified)
system.caches.network.routers1.msg_count.Data::2       431077                       (Unspecified)
system.caches.network.routers1.msg_bytes.Data::2     31037544                       (Unspecified)
system.caches.network.routers1.msg_count.Response_Data::4       431108                       (Unspecified)
system.caches.network.routers1.msg_bytes.Response_Data::4     31039776                       (Unspecified)
system.caches.network.routers1.msg_count.Writeback_Control::3       431076                       (Unspecified)
system.caches.network.routers1.msg_bytes.Writeback_Control::3      3448608                       (Unspecified)
system.caches.network.routers1.port_buffers2.m_buf_msgs     0.039718                       # Average number of messages in buffer (Unspecified)
system.caches.network.routers1.port_buffers2.m_stall_time  9196.175924                       # Average number of cycles messages are stalled in this MB (Unspecified)
system.caches.network.routers1.port_buffers6.m_buf_msgs     0.026589                       # Average number of messages in buffer (Unspecified)
system.caches.network.routers1.port_buffers6.m_stall_time  2153.092588                       # Average number of cycles messages are stalled in this MB (Unspecified)
system.caches.network.routers1.port_buffers7.m_buf_msgs     0.021044                       # Average number of messages in buffer (Unspecified)
system.caches.network.routers1.port_buffers7.m_stall_time  2031.938782                       # Average number of cycles messages are stalled in this MB (Unspecified)
system.caches.network.routers1.power_state.pwrStateResidencyTicks::UNDEFINED  21707465000                       # Cumulative time (in ticks) in various power states (Tick)
system.caches.network.routers1.throttle00.link_utilization     5.480058                       (Unspecified)
system.caches.network.routers1.throttle00.msg_count.Control::2       431109                       (Unspecified)
system.caches.network.routers1.throttle00.msg_bytes.Control::2      3448872                       (Unspecified)
system.caches.network.routers1.throttle00.msg_count.Data::2       431077                       (Unspecified)
system.caches.network.routers1.throttle00.msg_bytes.Data::2     31037544                       (Unspecified)
system.caches.network.routers1.throttle01.link_utilization     5.480016                       (Unspecified)
system.caches.network.routers1.throttle01.msg_count.Response_Data::4       431108                       (Unspecified)
system.caches.network.routers1.throttle01.msg_bytes.Response_Data::4     31039776                       (Unspecified)
system.caches.network.routers1.throttle01.msg_count.Writeback_Control::3       431076                       (Unspecified)
system.caches.network.routers1.throttle01.msg_bytes.Writeback_Control::3      3448608                       (Unspecified)
system.caches.power_state.pwrStateResidencyTicks::UNDEFINED  21707465000                       # Cumulative time (in ticks) in various power states (Tick)
system.caches.sequencers.power_state.pwrStateResidencyTicks::UNDEFINED  21707465000                       # Cumulative time (in ticks) in various power states (Tick)
system.caches.sys_port_proxy.power_state.pwrStateResidencyTicks::UNDEFINED  21707465000                       # Cumulative time (in ticks) in various power states (Tick)
system.clk_domain.clock                          1000                       # Clock period in ticks (Tick)
system.clk_domain.voltage_domain.voltage            1                       # Voltage in Volts (Volt)
system.cpu.numCycles                         11959728                       # Number of cpu cycles simulated (Cycle)
system.cpu.numWorkItemsStarted                      0                       # Number of work items this cpu started (Count)
system.cpu.numWorkItemsCompleted                    0                       # Number of work items this cpu completed (Count)
system.cpu.instsAdded                         8388728                       # Number of instructions added to the IQ (excludes non-spec) (Count)
system.cpu.nonSpecInstsAdded                        1                       # Number of non-speculative instructions added to the IQ (Count)
system.cpu.instsIssued                        8388722                       # Number of instructions issued (Count)
system.cpu.squashedInstsExamined                  111                       # Number of squashed instructions iterated over during squash; mainly for profiling (Count)
system.cpu.squashedOperandsExamined                42                       # Number of squashed operands that are examined and possibly removed from graph (Count)
system.cpu.numIssuedDist::samples            11959614                       # Number of insts issued each cycle (Count)
system.cpu.numIssuedDist::mean               0.701421                       # Number of insts issued each cycle (Count)
system.cpu.numIssuedDist::stdev              1.289757                       # Number of insts issued each cycle (Count)
system.cpu.numIssuedDist::underflows                0      0.00%      0.00% # Number of insts issued each cycle (Count)
system.cpu.numIssuedDist::0                   8333290     69.68%     69.68% # Number of insts issued each cycle (Count)
system.cpu.numIssuedDist::1                   1354407     11.32%     81.00% # Number of insts issued each cycle (Count)
system.cpu.numIssuedDist::2                    961178      8.04%     89.04% # Number of insts issued each cycle (Count)
system.cpu.numIssuedDist::3                    393213      3.29%     92.33% # Number of insts issued each cycle (Count)
system.cpu.numIssuedDist::4                    655352      5.48%     97.81% # Number of insts issued each cycle (Count)
system.cpu.numIssuedDist::5                    262142      2.19%    100.00% # Number of insts issued each cycle (Count)
system.cpu.numIssuedDist::6                        24      0.00%    100.00% # Number of insts issued each cycle (Count)
system.cpu.numIssuedDist::7                         6      0.00%    100.00% # Number of insts issued each cycle (Count)
system.cpu.numIssuedDist::8                         2      0.00%    100.00% # Number of insts issued each cycle (Count)
system.cpu.numIssuedDist::overflows                 0      0.00%    100.00% # Number of insts issued each cycle (Count)
system.cpu.numIssuedDist::min_value                 0                       # Number of insts issued each cycle (Count)
system.cpu.numIssuedDist::max_value                 8                       # Number of insts issued each cycle (Count)
system.cpu.numIssuedDist::total              11959614                       # Number of insts issued each cycle (Count)
system.cpu.statFuBusy::No_OpClass                   0      0.00%      0.00% # attempts to use FU when none available (Count)
system.cpu.statFuBusy::IntAlu                      24    100.00%    100.00% # attempts to use FU when none available (Count)
system.cpu.statFuBusy::IntMult                      0      0.00%    100.00% # attempts to use FU when none available (Count)
system.cpu.statFuBusy::IntDiv                       0      0.00%    100.00% # attempts to use FU when none available (Count)
system.cpu.statFuBusy::FloatAdd                     0      0.00%    100.00% # attempts to use FU when none available (Count)
system.cpu.statFuBusy::FloatCmp                     0      0.00%    100.00% # attempts to use FU when none available (Count)
system.cpu.statFuBusy::FloatCvt                     0      0.00%    100.00% # attempts to use FU when none available (Count)
system.cpu.statFuBusy::FloatMult                    0      0.00%    100.00% # attempts to use FU when none available (Count)
system.cpu.statFuBusy::FloatMultAcc                 0      0.00%    100.00% # attempts to use FU when none available (Count)
system.cpu.statFuBusy::FloatDiv                     0      0.00%    100.00% # attempts to use FU when none available (Count)
system.cpu.statFuBusy::FloatMisc                    0      0.00%    100.00% # attempts to use FU when none available (Count)
system.cpu.statFuBusy::FloatSqrt                    0      0.00%    100.00% # attempts to use FU when none available (Count)
system.cpu.statFuBusy::SimdAdd                      0      0.00%    100.00% # attempts to use FU when none available (Count)
system.cpu.statFuBusy::SimdAddAcc                   0      0.00%    100.00% # attempts to use FU when none available (Count)
system.cpu.statFuBusy::SimdAlu                      0      0.00%    100.00% # attempts to use FU when none available (Count)
system.cpu.statFuBusy::SimdCmp                      0      0.00%    100.00% # attempts to use FU when none available (Count)
system.cpu.statFuBusy::SimdCvt                      0      0.00%    100.00% # attempts to use FU when none available (Count)
system.cpu.statFuBusy::SimdMisc                     0      0.00%    100.00% # attempts to use FU when none available (Count)
system.cpu.statFuBusy::SimdMult                     0      0.00%    100.00% # attempts to use FU when none available (Count)
system.cpu.statFuBusy::SimdMultAcc                  0      0.00%    100.00% # attempts to use FU when none available (Count)
system.cpu.statFuBusy::SimdShift                    0      0.00%    100.00% # attempts to use FU when none available (Count)
system.cpu.statFuBusy::SimdShiftAcc                 0      0.00%    100.00% # attempts to use FU when none available (Count)
system.cpu.statFuBusy::SimdDiv                      0      0.00%    100.00% # attempts to use FU when none available (Count)
system.cpu.statFuBusy::SimdSqrt                     0      0.00%    100.00% # attempts to use FU when none available (Count)
system.cpu.statFuBusy::SimdFloatAdd                 0      0.00%    100.00% # attempts to use FU when none available (Count)
system.cpu.statFuBusy::SimdFloatAlu                 0      0.00%    100.00% # attempts to use FU when none available (Count)
system.cpu.statFuBusy::SimdFloatCmp                 0      0.00%    100.00% # attempts to use FU when none available (Count)
system.cpu.statFuBusy::SimdFloatCvt                 0      0.00%    100.00% # attempts to use FU when none available (Count)
system.cpu.statFuBusy::SimdFloatDiv                 0      0.00%    100.00% # attempts to use FU when none available (Count)
system.cpu.statFuBusy::SimdFloatMisc                0      0.00%    100.00% # attempts to use FU when none available (Count)
system.cpu.statFuBusy::SimdFloatMult                0      0.00%    100.00% # attempts to use FU when none available (Count)
system.cpu.statFuBusy::SimdFloatMultAcc             0      0.00%    100.00% # attempts to use FU when none available (Count)
system.cpu.statFuBusy::SimdFloatSqrt                0      0.00%    100.00% # attempts to use FU when none available (Count)
system.cpu.statFuBusy::SimdReduceAdd                0      0.00%    100.00% # attempts to use FU when none available (Count)
system.cpu.statFuBusy::SimdReduceAlu                0      0.00%    100.00% # attempts to use FU when none available (Count)
system.cpu.statFuBusy::SimdReduceCmp                0      0.00%    100.00% # attempts to use FU when none available (Count)
system.cpu.statFuBusy::SimdFloatReduceAdd            0      0.00%    100.00% # attempts to use FU when none available (Count)
system.cpu.statFuBusy::SimdFloatReduceCmp            0      0.00%    100.00% # attempts to use FU when none available (Count)
system.cpu.statFuBusy::SimdAes                      0      0.00%    100.00% # attempts to use FU when none available (Count)
system.cpu.statFuBusy::SimdAesMix                   0      0.00%    100.00% # attempts to use FU when none available (Count)
system.cpu.statFuBusy::SimdSha1Hash                 0      0.00%    100.00% # attempts to use FU when none available (Count)
system.cpu.statFuBusy::SimdSha1Hash2                0      0.00%    100.00% # attempts to use FU when none available (Count)
system.cpu.statFuBusy::SimdSha256Hash               0      0.00%    100.00% # attempts to use FU when none available (Count)
system.cpu.statFuBusy::SimdSha256Hash2              0      0.00%    100.00% # attempts to use FU when none available (Count)
system.cpu.statFuBusy::SimdShaSigma2                0      0.00%    100.00% # attempts to use FU when none available (Count)
system.cpu.statFuBusy::SimdShaSigma3                0      0.00%    100.00% # attempts to use FU when none available (Count)
system.cpu.statFuBusy::SimdPredAlu                  0      0.00%    100.00% # attempts to use FU when none available (Count)
system.cpu.statFuBusy::MemRead                      0      0.00%    100.00% # attempts to use FU when none available (Count)
system.cpu.statFuBusy::MemWrite                     0      0.00%    100.00% # attempts to use FU when none available (Count)
system.cpu.statFuBusy::FloatMemRead                 0      0.00%    100.00% # attempts to use FU when none available (Count)
system.cpu.statFuBusy::FloatMemWrite                0      0.00%    100.00% # attempts to use FU when none available (Count)
system.cpu.statFuBusy::IprAccess                    0      0.00%    100.00% # attempts to use FU when none available (Count)
system.cpu.statFuBusy::InstPrefetch                 0      0.00%    100.00% # attempts to use FU when none available (Count)
system.cpu.statIssuedInstType_0::No_OpClass            6      0.00%      0.00% # Number of instructions issued per FU type, per thread (Count)
system.cpu.statIssuedInstType_0::IntAlu       7340111     87.50%     87.50% # Number of instructions issued per FU type, per thread (Count)
system.cpu.statIssuedInstType_0::IntMult            0      0.00%     87.50% # Number of instructions issued per FU type, per thread (Count)
system.cpu.statIssuedInstType_0::IntDiv             0      0.00%     87.50% # Number of instructions issued per FU type, per thread (Count)
system.cpu.statIssuedInstType_0::FloatAdd            0      0.00%     87.50% # Number of instructions issued per FU type, per thread (Count)
system.cpu.statIssuedInstType_0::FloatCmp            0      0.00%     87.50% # Number of instructions issued per FU type, per thread (Count)
system.cpu.statIssuedInstType_0::FloatCvt            0      0.00%     87.50% # Number of instructions issued per FU type, per thread (Count)
system.cpu.statIssuedInstType_0::FloatMult            0      0.00%     87.50% # Number of instructions issued per FU type, per thread (Count)
system.cpu.statIssuedInstType_0::FloatMultAcc            0      0.00%     87.50% # Number of instructions issued per FU type, per thread (Count)
system.cpu.statIssuedInstType_0::FloatDiv            0      0.00%     87.50% # Number of instructions issued per FU type, per thread (Count)
system.cpu.statIssuedInstType_0::FloatMisc            0      0.00%     87.50% # Number of instructions issued per FU type, per thread (Count)
system.cpu.statIssuedInstType_0::FloatSqrt            0      0.00%     87.50% # Number of instructions issued per FU type, per thread (Count)
system.cpu.statIssuedInstType_0::SimdAdd            0      0.00%     87.50% # Number of instructions issued per FU type, per thread (Count)
system.cpu.statIssuedInstType_0::SimdAddAcc            0      0.00%     87.50% # Number of instructions issued per FU type, per thread (Count)
system.cpu.statIssuedInstType_0::SimdAlu            0      0.00%     87.50% # Number of instructions issued per FU type, per thread (Count)
system.cpu.statIssuedInstType_0::SimdCmp            0      0.00%     87.50% # Number of instructions issued per FU type, per thread (Count)
system.cpu.statIssuedInstType_0::SimdCvt            0      0.00%     87.50% # Number of instructions issued per FU type, per thread (Count)
system.cpu.statIssuedInstType_0::SimdMisc            0      0.00%     87.50% # Number of instructions issued per FU type, per thread (Count)
system.cpu.statIssuedInstType_0::SimdMult            0      0.00%     87.50% # Number of instructions issued per FU type, per thread (Count)
system.cpu.statIssuedInstType_0::SimdMultAcc            0      0.00%     87.50% # Number of instructions issued per FU type, per thread (Count)
system.cpu.statIssuedInstType_0::SimdShift            0      0.00%     87.50% # Number of instructions issued per FU type, per thread (Count)
system.cpu.statIssuedInstType_0::SimdShiftAcc            0      0.00%     87.50% # Number of instructions issued per FU type, per thread (Count)
system.cpu.statIssuedInstType_0::SimdDiv            0      0.00%     87.50% # Number of instructions issued per FU type, per thread (Count)
system.cpu.statIssuedInstType_0::SimdSqrt            0      0.00%     87.50% # Number of instructions issued per FU type, per thread (Count)
system.cpu.statIssuedInstType_0::SimdFloatAdd            0      0.00%     87.50% # Number of instructions issued per FU type, per thread (Count)
system.cpu.statIssuedInstType_0::SimdFloatAlu            0      0.00%     87.50% # Number of instructions issued per FU type, per thread (Count)
system.cpu.statIssuedInstType_0::SimdFloatCmp            0      0.00%     87.50% # Number of instructions issued per FU type, per thread (Count)
system.cpu.statIssuedInstType_0::SimdFloatCvt            0      0.00%     87.50% # Number of instructions issued per FU type, per thread (Count)
system.cpu.statIssuedInstType_0::SimdFloatDiv            0      0.00%     87.50% # Number of instructions issued per FU type, per thread (Count)
system.cpu.statIssuedInstType_0::SimdFloatMisc            0      0.00%     87.50% # Number of instructions issued per FU type, per thread (Count)
system.cpu.statIssuedInstType_0::SimdFloatMult            0      0.00%     87.50% # Number of instructions issued per FU type, per thread (Count)
system.cpu.statIssuedInstType_0::SimdFloatMultAcc            0      0.00%     87.50% # Number of instructions issued per FU type, per thread (Count)
system.cpu.statIssuedInstType_0::SimdFloatSqrt            0      0.00%     87.50% # Number of instructions issued per FU type, per thread (Count)
system.cpu.statIssuedInstType_0::SimdReduceAdd            0      0.00%     87.50% # Number of instructions issued per FU type, per thread (Count)
system.cpu.statIssuedInstType_0::SimdReduceAlu            0      0.00%     87.50% # Number of instructions issued per FU type, per thread (Count)
system.cpu.statIssuedInstType_0::SimdReduceCmp            0      0.00%     87.50% # Number of instructions issued per FU type, per thread (Count)
system.cpu.statIssuedInstType_0::SimdFloatReduceAdd            0      0.00%     87.50% # Number of instructions issued per FU type, per thread (Count)
system.cpu.statIssuedInstType_0::SimdFloatReduceCmp            0      0.00%     87.50% # Number of instructions issued per FU type, per thread (Count)
system.cpu.statIssuedInstType_0::SimdAes            0      0.00%     87.50% # Number of instructions issued per FU type, per thread (Count)
system.cpu.statIssuedInstType_0::SimdAesMix            0      0.00%     87.50% # Number of instructions issued per FU type, per thread (Count)
system.cpu.statIssuedInstType_0::SimdSha1Hash            0      0.00%     87.50% # Number of instructions issued per FU type, per thread (Count)
system.cpu.statIssuedInstType_0::SimdSha1Hash2            0      0.00%     87.50% # Number of instructions issued per FU type, per thread (Count)
system.cpu.statIssuedInstType_0::SimdSha256Hash            0      0.00%     87.50% # Number of instructions issued per FU type, per thread (Count)
system.cpu.statIssuedInstType_0::SimdSha256Hash2            0      0.00%     87.50% # Number of instructions issued per FU type, per thread (Count)
system.cpu.statIssuedInstType_0::SimdShaSigma2            0      0.00%     87.50% # Number of instructions issued per FU type, per thread (Count)
system.cpu.statIssuedInstType_0::SimdShaSigma3            0      0.00%     87.50% # Number of instructions issued per FU type, per thread (Count)
system.cpu.statIssuedInstType_0::SimdPredAlu            0      0.00%     87.50% # Number of instructions issued per FU type, per thread (Count)
system.cpu.statIssuedInstType_0::MemRead      1048592     12.50%    100.00% # Number of instructions issued per FU type, per thread (Count)
system.cpu.statIssuedInstType_0::MemWrite           13      0.00%    100.00% # Number of instructions issued per FU type, per thread (Count)
system.cpu.statIssuedInstType_0::FloatMemRead            0      0.00%    100.00% # Number of instructions issued per FU type, per thread (Count)
system.cpu.statIssuedInstType_0::FloatMemWrite            0      0.00%    100.00% # Number of instructions issued per FU type, per thread (Count)
system.cpu.statIssuedInstType_0::IprAccess            0      0.00%    100.00% # Number of instructions issued per FU type, per thread (Count)
system.cpu.statIssuedInstType_0::InstPrefetch            0      0.00%    100.00% # Number of instructions issued per FU type, per thread (Count)
system.cpu.statIssuedInstType_0::total        8388722                       # Number of instructions issued per FU type, per thread (Count)
system.cpu.issueRate                         0.701414                       # Inst issue rate ((Count/Cycle))
system.cpu.fuBusy                                  24                       # FU busy when requested (Count)
system.cpu.fuBusyRate                        0.000003                       # FU busy rate (busy events/executed inst) ((Count/Count))
system.cpu.intInstQueueReads                 28737089                       # Number of integer instruction queue reads (Count)
system.cpu.intInstQueueWrites                 8388840                       # Number of integer instruction queue writes (Count)
system.cpu.intInstQueueWakeupAccesses         8388719                       # Number of integer instruction queue wakeup accesses (Count)
system.cpu.fpInstQueueReads                         0                       # Number of floating instruction queue reads (Count)
system.cpu.fpInstQueueWrites                        0                       # Number of floating instruction queue writes (Count)
system.cpu.fpInstQueueWakeupAccesses                0                       # Number of floating instruction queue wakeup accesses (Count)
system.cpu.vecInstQueueReads                        0                       # Number of vector instruction queue reads (Count)
system.cpu.vecInstQueueWrites                       0                       # Number of vector instruction queue writes (Count)
system.cpu.vecInstQueueWakeupAccesses               0                       # Number of vector instruction queue wakeup accesses (Count)
system.cpu.intAluAccesses                     8388740                       # Number of integer alu accesses (Count)
system.cpu.fpAluAccesses                            0                       # Number of floating point alu accesses (Count)
system.cpu.vecAluAccesses                           0                       # Number of vector alu accesses (Count)
system.cpu.idleCycles                               0                       # Number of cycles IEW is idle (Cycle)
system.cpu.squashCycles                             3                       # Number of cycles IEW is squashing (Cycle)
system.cpu.blockCycles                             13                       # Number of cycles IEW is blocking (Cycle)
system.cpu.unblockCycles                            0                       # Number of cycles IEW is unblocking (Cycle)
system.cpu.dispatchedInsts                    8388729                       # Number of instructions dispatched to IQ (Count)
system.cpu.dispSquashedInsts                        0                       # Number of squashed instructions skipped by dispatch (Count)
system.cpu.dispLoadInsts                      1048595                       # Number of dispatched load instructions (Count)
system.cpu.dispStoreInsts                          15                       # Number of dispatched store instructions (Count)
system.cpu.dispNonSpecInsts                         1                       # Number of dispatched non-speculative instructions (Count)
system.cpu.iqFullEvents                             0                       # Number of times the IQ has become full, causing a stall (Count)
system.cpu.lsqFullEvents                            0                       # Number of times the LSQ has become full, causing a stall (Count)
system.cpu.memOrderViolationEvents                  0                       # Number of memory order violations (Count)
system.cpu.predictedTakenIncorrect                  1                       # Number of branches that were predicted taken incorrectly (Count)
system.cpu.predictedNotTakenIncorrect               4                       # Number of branches that were predicted not taken incorrectly (Count)
system.cpu.branchMispredicts                        5                       # Number of branch mispredicts detected at execute (Count)
system.cpu.numInsts                           8388725                       # Number of executed instructions (Count)
system.cpu.numLoadInsts                       1048593                       # Number of load instructions executed (Count)
system.cpu.numSquashedInsts                         4                       # Number of squashed instructions skipped in execute (Count)
system.cpu.numSwp                                   0                       # Number of swp insts executed (Count)
system.cpu.numNop                                   0                       # Number of nop insts executed (Count)
system.cpu.numRefs                            1048605                       # Number of memory reference insts executed (Count)
system.cpu.numBranches                        1048597                       # Number of branches executed (Count)
system.cpu.numStoreInsts                           12                       # Number of stores executed (Count)
system.cpu.numRate                           0.701414                       # Inst execution rate ((Count/Cycle))
system.cpu.instsToCommit                      8388725                       # Cumulative count of insts sent to commit (Count)
system.cpu.writebackCount                     8388719                       # Cumulative count of insts written-back (Count)
system.cpu.producerInst                       7165331                       # Number of instructions producing a value (Count)
system.cpu.consumerInst                       8519766                       # Number of instructions consuming a value (Count)
system.cpu.wbRate                            0.701414                       # Insts written-back per cycle ((Count/Cycle))
system.cpu.wbFanout                          0.841024                       # Average fanout of values written-back ((Count/Count))
system.cpu.timesIdled                               3                       # Number of times that the entire CPU went into an idle state and unscheduled itself (Count)
system.cpu.idleCycles                             114                       # Total number of cycles that the CPU has spent unscheduled due to idling (Cycle)
system.cpu.committedInsts                     4194313                       # Number of Instructions Simulated (Count)
system.cpu.committedOps                       8388625                       # Number of Ops (including micro ops) Simulated (Count)
system.cpu.cpi                               2.851415                       # CPI: Cycles Per Instruction ((Cycle/Count))
system.cpu.totalCpi                          2.851415                       # CPI: Total CPI of All Threads ((Cycle/Count))
system.cpu.ipc                               0.350703                       # IPC: Instructions Per Cycle ((Count/Cycle))
system.cpu.totalIpc                          0.350703                       # IPC: Total IPC of All Threads ((Count/Cycle))
system.cpu.intRegfileReads                    8388733                       # Number of integer regfile reads (Count)
system.cpu.intRegfileWrites                   7340109                       # Number of integer regfile writes (Count)
system.cpu.ccRegfileReads                     5242888                       # number of cc regfile reads (Count)
system.cpu.ccRegfileWrites                    4194312                       # number of cc regfile writes (Count)
system.cpu.miscRegfileReads                   3145805                       # number of misc regfile reads (Count)
system.cpu.MemDepUnit__0.insertedLoads        1048595                       # Number of loads inserted to the mem dependence unit. (Count)
system.cpu.MemDepUnit__0.insertedStores            15                       # Number of stores inserted to the mem dependence unit. (Count)
system.cpu.MemDepUnit__0.conflictingLoads            0                       # Number of conflicting loads. (Count)
system.cpu.MemDepUnit__0.conflictingStores            0                       # Number of conflicting stores. (Count)
system.cpu.MemDepUnit__1.insertedLoads              0                       # Number of loads inserted to the mem dependence unit. (Count)
system.cpu.MemDepUnit__1.insertedStores             0                       # Number of stores inserted to the mem dependence unit. (Count)
system.cpu.MemDepUnit__1.conflictingLoads            0                       # Number of conflicting loads. (Count)
system.cpu.MemDepUnit__1.conflictingStores            0                       # Number of conflicting stores. (Count)
system.cpu.MemDepUnit__2.insertedLoads              0                       # Number of loads inserted to the mem dependence unit. (Count)
system.cpu.MemDepUnit__2.insertedStores             0                       # Number of stores inserted to the mem dependence unit. (Count)
system.cpu.MemDepUnit__2.conflictingLoads            0                       # Number of conflicting loads. (Count)
system.cpu.MemDepUnit__2.conflictingStores            0                       # Number of conflicting stores. (Count)
system.cpu.MemDepUnit__3.insertedLoads              0                       # Number of loads inserted to the mem dependence unit. (Count)
system.cpu.MemDepUnit__3.insertedStores             0                       # Number of stores inserted to the mem dependence unit. (Count)
system.cpu.MemDepUnit__3.conflictingLoads            0                       # Number of conflicting loads. (Count)
system.cpu.MemDepUnit__3.conflictingStores            0                       # Number of conflicting stores. (Count)
system.cpu.branchPred.lookups                 1048609                       # Number of BP lookups (Count)
system.cpu.branchPred.condPredicted           1048581                       # Number of conditional branches predicted (Count)
system.cpu.branchPred.condIncorrect                 5                       # Number of conditional branches incorrect (Count)
system.cpu.branchPred.BTBLookups              1048592                       # Number of BTB lookups (Count)
system.cpu.branchPred.BTBHits                 1048589                       # Number of BTB hits (Count)
system.cpu.branchPred.BTBHitRatio            0.999997                       # BTB Hit Ratio (Ratio)
system.cpu.branchPred.RASUsed                       1                       # Number of times the RAS was used to get a target. (Count)
system.cpu.branchPred.RASIncorrect                  0                       # Number of incorrect RAS predictions. (Count)
system.cpu.branchPred.indirectLookups              16                       # Number of indirect predictor lookups. (Count)
system.cpu.branchPred.indirectHits                  0                       # Number of indirect target hits. (Count)
system.cpu.branchPred.indirectMisses               16                       # Number of indirect misses. (Count)
system.cpu.branchPred.indirectMispredicted            1                       # Number of mispredicted indirect branches. (Count)
system.cpu.commit.commitSquashedInsts               3                       # The number of squashed insts skipped by commit (Count)
system.cpu.commit.commitNonSpecStalls               1                       # The number of times commit has been forced to stall to communicate backwards (Count)
system.cpu.commit.branchMispredicts                 3                       # The number of times a branch was mispredicted (Count)
system.cpu.commit.numCommittedDist::samples     11959598                       # Number of insts commited each cycle (Count)
system.cpu.commit.numCommittedDist::mean     0.701414                       # Number of insts commited each cycle (Count)
system.cpu.commit.numCommittedDist::stdev     2.262593                       # Number of insts commited each cycle (Count)
system.cpu.commit.numCommittedDist::underflows            0      0.00%      0.00% # Number of insts commited each cycle (Count)
system.cpu.commit.numCommittedDist::0        10911018     91.23%     91.23% # Number of insts commited each cycle (Count)
system.cpu.commit.numCommittedDist::1               1      0.00%     91.23% # Number of insts commited each cycle (Count)
system.cpu.commit.numCommittedDist::2               0      0.00%     91.23% # Number of insts commited each cycle (Count)
system.cpu.commit.numCommittedDist::3               1      0.00%     91.23% # Number of insts commited each cycle (Count)
system.cpu.commit.numCommittedDist::4               0      0.00%     91.23% # Number of insts commited each cycle (Count)
system.cpu.commit.numCommittedDist::5               1      0.00%     91.23% # Number of insts commited each cycle (Count)
system.cpu.commit.numCommittedDist::6               0      0.00%     91.23% # Number of insts commited each cycle (Count)
system.cpu.commit.numCommittedDist::7               0      0.00%     91.23% # Number of insts commited each cycle (Count)
system.cpu.commit.numCommittedDist::8         1048577      8.77%    100.00% # Number of insts commited each cycle (Count)
system.cpu.commit.numCommittedDist::overflows            0      0.00%    100.00% # Number of insts commited each cycle (Count)
system.cpu.commit.numCommittedDist::min_value            0                       # Number of insts commited each cycle (Count)
system.cpu.commit.numCommittedDist::max_value            8                       # Number of insts commited each cycle (Count)
system.cpu.commit.numCommittedDist::total     11959598                       # Number of insts commited each cycle (Count)
system.cpu.commit.instsCommitted              4194313                       # Number of instructions committed (Count)
system.cpu.commit.opsCommitted                8388625                       # Number of ops (including micro ops) committed (Count)
system.cpu.commit.memRefs                     1048578                       # Number of memory references committed (Count)
system.cpu.commit.loads                       1048577                       # Number of loads committed (Count)
system.cpu.commit.amos                              0                       # Number of atomic instructions committed (Count)
system.cpu.commit.membars                           0                       # Number of memory barriers committed (Count)
system.cpu.commit.branches                    1048579                       # Number of branches committed (Count)
system.cpu.commit.vectorInstructions                0                       # Number of committed Vector instructions. (Count)
system.cpu.commit.floating                          0                       # Number of committed floating point instructions. (Count)
system.cpu.commit.integer                     8388623                       # Number of committed integer instructions. (Count)
system.cpu.commit.functionCalls                     1                       # Number of function calls committed. (Count)
system.cpu.commit.committedInstType_0::No_OpClass            1      0.00%      0.00% # Class of committed instruction (Count)
system.cpu.commit.committedInstType_0::IntAlu      7340046     87.50%     87.50% # Class of committed instruction (Count)
system.cpu.commit.committedInstType_0::IntMult            0      0.00%     87.50% # Class of committed instruction (Count)
system.cpu.commit.committedInstType_0::IntDiv            0      0.00%     87.50% # Class of committed instruction (Count)
system.cpu.commit.committedInstType_0::FloatAdd            0      0.00%     87.50% # Class of committed instruction (Count)
system.cpu.commit.committedInstType_0::FloatCmp            0      0.00%     87.50% # Class of committed instruction (Count)
system.cpu.commit.committedInstType_0::FloatCvt            0      0.00%     87.50% # Class of committed instruction (Count)
system.cpu.commit.committedInstType_0::FloatMult            0      0.00%     87.50% # Class of committed instruction (Count)
system.cpu.commit.committedInstType_0::FloatMultAcc            0      0.00%     87.50% # Class of committed instruction (Count)
system.cpu.commit.committedInstType_0::FloatDiv            0      0.00%     87.50% # Class of committed instruction (Count)
system.cpu.commit.committedInstType_0::FloatMisc            0      0.00%     87.50% # Class of committed instruction (Count)
system.cpu.commit.committedInstType_0::FloatSqrt            0      0.00%     87.50% # Class of committed instruction (Count)
system.cpu.commit.committedInstType_0::SimdAdd            0      0.00%     87.50% # Class of committed instruction (Count)
system.cpu.commit.committedInstType_0::SimdAddAcc            0      0.00%     87.50% # Class of committed instruction (Count)
system.cpu.commit.committedInstType_0::SimdAlu            0      0.00%     87.50% # Class of committed instruction (Count)
system.cpu.commit.committedInstType_0::SimdCmp            0      0.00%     87.50% # Class of committed instruction (Count)
system.cpu.commit.committedInstType_0::SimdCvt            0      0.00%     87.50% # Class of committed instruction (Count)
system.cpu.commit.committedInstType_0::SimdMisc            0      0.00%     87.50% # Class of committed instruction (Count)
system.cpu.commit.committedInstType_0::SimdMult            0      0.00%     87.50% # Class of committed instruction (Count)
system.cpu.commit.committedInstType_0::SimdMultAcc            0      0.00%     87.50% # Class of committed instruction (Count)
system.cpu.commit.committedInstType_0::SimdShift            0      0.00%     87.50% # Class of committed instruction (Count)
system.cpu.commit.committedInstType_0::SimdShiftAcc            0      0.00%     87.50% # Class of committed instruction (Count)
system.cpu.commit.committedInstType_0::SimdDiv            0      0.00%     87.50% # Class of committed instruction (Count)
system.cpu.commit.committedInstType_0::SimdSqrt            0      0.00%     87.50% # Class of committed instruction (Count)
system.cpu.commit.committedInstType_0::SimdFloatAdd            0      0.00%     87.50% # Class of committed instruction (Count)
system.cpu.commit.committedInstType_0::SimdFloatAlu            0      0.00%     87.50% # Class of committed instruction (Count)
system.cpu.commit.committedInstType_0::SimdFloatCmp            0      0.00%     87.50% # Class of committed instruction (Count)
system.cpu.commit.committedInstType_0::SimdFloatCvt            0      0.00%     87.50% # Class of committed instruction (Count)
system.cpu.commit.committedInstType_0::SimdFloatDiv            0      0.00%     87.50% # Class of committed instruction (Count)
system.cpu.commit.committedInstType_0::SimdFloatMisc            0      0.00%     87.50% # Class of committed instruction (Count)
system.cpu.commit.committedInstType_0::SimdFloatMult            0      0.00%     87.50% # Class of committed instruction (Count)
system.cpu.commit.committedInstType_0::SimdFloatMultAcc            0      0.00%     87.50% # Class of committed instruction (Count)
system.cpu.commit.committedInstType_0::SimdFloatSqrt            0      0.00%     87.50% # Class of committed instruction (Count)
system.cpu.commit.committedInstType_0::SimdReduceAdd            0      0.00%     87.50% # Class of committed instruction (Count)
system.cpu.commit.committedInstType_0::SimdReduceAlu            0      0.00%     87.50% # Class of committed instruction (Count)
system.cpu.commit.committedInstType_0::SimdReduceCmp            0      0.00%     87.50% # Class of committed instruction (Count)
system.cpu.commit.committedInstType_0::SimdFloatReduceAdd            0      0.00%     87.50% # Class of committed instruction (Count)
system.cpu.commit.committedInstType_0::SimdFloatReduceCmp            0      0.00%     87.50% # Class of committed instruction (Count)
system.cpu.commit.committedInstType_0::SimdAes            0      0.00%     87.50% # Class of committed instruction (Count)
system.cpu.commit.committedInstType_0::SimdAesMix            0      0.00%     87.50% # Class of committed instruction (Count)
system.cpu.commit.committedInstType_0::SimdSha1Hash            0      0.00%     87.50% # Class of committed instruction (Count)
system.cpu.commit.committedInstType_0::SimdSha1Hash2            0      0.00%     87.50% # Class of committed instruction (Count)
system.cpu.commit.committedInstType_0::SimdSha256Hash            0      0.00%     87.50% # Class of committed instruction (Count)
system.cpu.commit.committedInstType_0::SimdSha256Hash2            0      0.00%     87.50% # Class of committed instruction (Count)
system.cpu.commit.committedInstType_0::SimdShaSigma2            0      0.00%     87.50% # Class of committed instruction (Count)
system.cpu.commit.committedInstType_0::SimdShaSigma3            0      0.00%     87.50% # Class of committed instruction (Count)
system.cpu.commit.committedInstType_0::SimdPredAlu            0      0.00%     87.50% # Class of committed instruction (Count)
system.cpu.commit.committedInstType_0::MemRead      1048577     12.50%    100.00% # Class of committed instruction (Count)
system.cpu.commit.committedInstType_0::MemWrite            1      0.00%    100.00% # Class of committed instruction (Count)
system.cpu.commit.committedInstType_0::FloatMemRead            0      0.00%    100.00% # Class of committed instruction (Count)
system.cpu.commit.committedInstType_0::FloatMemWrite            0      0.00%    100.00% # Class of committed instruction (Count)
system.cpu.commit.committedInstType_0::IprAccess            0      0.00%    100.00% # Class of committed instruction (Count)
system.cpu.commit.committedInstType_0::InstPrefetch            0      0.00%    100.00% # Class of committed instruction (Count)
system.cpu.commit.committedInstType_0::total      8388625                       # Class of committed instruction (Count)
system.cpu.commit.commitEligibleSamples       1048577                       # number cycles where commit BW limit reached (Cycle)
system.cpu.decode.idleCycles                   349676                       # Number of cycles decode is idle (Cycle)
system.cpu.decode.blockedCycles              10561330                       # Number of cycles decode is blocked (Cycle)
system.cpu.decode.runCycles                        51                       # Number of cycles decode is running (Cycle)
[...]
system.mem_ctrl.rdPerTurnAround::14                41      0.06%      0.22% # Reads before turning the bus around for writes (Count)
system.mem_ctrl.rdPerTurnAround::15                51      0.08%      0.30% # Reads before turning the bus around for writes (Count)
system.mem_ctrl.rdPerTurnAround::16             65071     98.93%     99.23% # Reads before turning the bus around for writes (Count)
system.mem_ctrl.rdPerTurnAround::17               496      0.75%     99.99% # Reads before turning the bus around for writes (Count)
system.mem_ctrl.rdPerTurnAround::18                 6      0.01%    100.00% # Reads before turning the bus around for writes (Count)
system.mem_ctrl.rdPerTurnAround::19                 2      0.00%    100.00% # Reads before turning the bus around for writes (Count)
system.mem_ctrl.rdPerTurnAround::total          65773                       # Reads before turning the bus around for writes (Count)
system.mem_ctrl.wrPerTurnAround::samples        65773                       # Writes before turning the bus around for reads (Count)
system.mem_ctrl.wrPerTurnAround::mean       16.007845                       # Writes before turning the bus around for reads (Count)
system.mem_ctrl.wrPerTurnAround::gmean      16.007585                       # Writes before turning the bus around for reads (Count)
system.mem_ctrl.wrPerTurnAround::stdev       0.093902                       # Writes before turning the bus around for reads (Count)
system.mem_ctrl.wrPerTurnAround::16             65276     99.24%     99.24% # Writes before turning the bus around for reads (Count)
system.mem_ctrl.wrPerTurnAround::17               488      0.74%     99.99% # Writes before turning the bus around for reads (Count)
system.mem_ctrl.wrPerTurnAround::18                 3      0.00%     99.99% # Writes before turning the bus around for reads (Count)
system.mem_ctrl.wrPerTurnAround::19                 3      0.00%    100.00% # Writes before turning the bus around for reads (Count)
system.mem_ctrl.wrPerTurnAround::20                 2      0.00%    100.00% # Writes before turning the bus around for reads (Count)
system.mem_ctrl.wrPerTurnAround::21                 1      0.00%    100.00% # Writes before turning the bus around for reads (Count)
system.mem_ctrl.wrPerTurnAround::total          65773                       # Writes before turning the bus around for reads (Count)
system.mem_ctrl.bytesReadWrQ                    87488                       # Total number of bytes read from write queue (Byte)
system.mem_ctrl.bytesReadSys                 67430272                       # Total read bytes from the system interface side (Byte)
system.mem_ctrl.bytesWrittenSys              67430272                       # Total written bytes from the system interface side (Byte)
system.mem_ctrl.avgRdBWSys               937351881.65854418                       # Average system read bandwidth in Byte/s ((Byte/Second))
system.mem_ctrl.avgWrBWSys               937351881.65854418                       # Average system write bandwidth in Byte/s ((Byte/Second))
system.mem_ctrl.totGap                    71937004000                       # Total gap between requests (Tick)
system.mem_ctrl.avgGap                       34138.73                       # Average gap between requests ((Tick/Count))
system.mem_ctrl.requestorReadBytes::caches.controllers1     67342784                       # Per-requestor bytes read from memory (Byte)
system.mem_ctrl.requestorWriteBytes::caches.controllers1     67384576                       # Per-requestor bytes write to memory (Byte)
system.mem_ctrl.requestorReadRate::caches.controllers1 936135706.208109378815                       # Per-requestor bytes read from memory rate ((Byte/Second))
system.mem_ctrl.requestorWriteRate::caches.controllers1 936716659.075069069862                       # Per-requestor bytes write to memory rate ((Byte/Second))
system.mem_ctrl.requestorReadAccesses::caches.controllers1      1053598                       # Per-requestor read serviced memory accesses (Count)
system.mem_ctrl.requestorWriteAccesses::caches.controllers1      1053598                       # Per-requestor write serviced memory accesses (Count)
system.mem_ctrl.requestorReadTotalLat::caches.controllers1  29709331000                       # Per-requestor read total memory access latency (Tick)
system.mem_ctrl.requestorWriteTotalLat::caches.controllers1 1774709226500                       # Per-requestor write total memory access latency (Tick)
system.mem_ctrl.requestorReadAvgLat::caches.controllers1     28197.98                       # Per-requestor read average memory access latency ((Tick/Count))
system.mem_ctrl.requestorWriteAvgLat::caches.controllers1   1684427.29                       # Per-requestor write average memory access latency ((Tick/Count))
system.mem_ctrl.dram.bytesRead::caches.controllers1     67430272                       # Number of bytes read from this memory (Byte)
system.mem_ctrl.dram.bytesRead::total        67430272                       # Number of bytes read from this memory (Byte)
system.mem_ctrl.dram.bytesWritten::caches.controllers1     67430272                       # Number of bytes written to this memory (Byte)
system.mem_ctrl.dram.bytesWritten::total     67430272                       # Number of bytes written to this memory (Byte)
system.mem_ctrl.dram.numReads::caches.controllers1      1053598                       # Number of read requests responded to by this memory (Count)
system.mem_ctrl.dram.numReads::total          1053598                       # Number of read requests responded to by this memory (Count)
system.mem_ctrl.dram.numWrites::caches.controllers1      1053598                       # Number of write requests responded to by this memory (Count)
system.mem_ctrl.dram.numWrites::total         1053598                       # Number of write requests responded to by this memory (Count)
system.mem_ctrl.dram.bwRead::caches.controllers1    937351882                       # Total read bandwidth from this memory ((Byte/Second))
system.mem_ctrl.dram.bwRead::total          937351882                       # Total read bandwidth from this memory ((Byte/Second))
system.mem_ctrl.dram.bwWrite::caches.controllers1    937351882                       # Write bandwidth from this memory ((Byte/Second))
system.mem_ctrl.dram.bwWrite::total         937351882                       # Write bandwidth from this memory ((Byte/Second))
system.mem_ctrl.dram.bwTotal::caches.controllers1   1874703763                       # Total bandwidth to/from this memory ((Byte/Second))
system.mem_ctrl.dram.bwTotal::total        1874703763                       # Total bandwidth to/from this memory ((Byte/Second))
system.mem_ctrl.dram.readBursts               1052231                       # Number of DRAM read bursts (Count)
system.mem_ctrl.dram.writeBursts              1052884                       # Number of DRAM write bursts (Count)
system.mem_ctrl.dram.perBankRdBursts::0         66304                       # Per bank write bursts (Count)
system.mem_ctrl.dram.perBankRdBursts::1         65847                       # Per bank write bursts (Count)
system.mem_ctrl.dram.perBankRdBursts::2         65615                       # Per bank write bursts (Count)
system.mem_ctrl.dram.perBankRdBursts::3         65733                       # Per bank write bursts (Count)
system.mem_ctrl.dram.perBankRdBursts::4         65758                       # Per bank write bursts (Count)
system.mem_ctrl.dram.perBankRdBursts::5         65830                       # Per bank write bursts (Count)
system.mem_ctrl.dram.perBankRdBursts::6         65838                       # Per bank write bursts (Count)
system.mem_ctrl.dram.perBankRdBursts::7         65638                       # Per bank write bursts (Count)
system.mem_ctrl.dram.perBankRdBursts::8         65745                       # Per bank write bursts (Count)
system.mem_ctrl.dram.perBankRdBursts::9         65736                       # Per bank write bursts (Count)
system.mem_ctrl.dram.perBankRdBursts::10        65757                       # Per bank write bursts (Count)
system.mem_ctrl.dram.perBankRdBursts::11        65688                       # Per bank write bursts (Count)
system.mem_ctrl.dram.perBankRdBursts::12        65614                       # Per bank write bursts (Count)
system.mem_ctrl.dram.perBankRdBursts::13        65652                       # Per bank write bursts (Count)
system.mem_ctrl.dram.perBankRdBursts::14        65678                       # Per bank write bursts (Count)
system.mem_ctrl.dram.perBankRdBursts::15        65798                       # Per bank write bursts (Count)
system.mem_ctrl.dram.perBankWrBursts::0         66495                       # Per bank write bursts (Count)
system.mem_ctrl.dram.perBankWrBursts::1         65925                       # Per bank write bursts (Count)
system.mem_ctrl.dram.perBankWrBursts::2         65629                       # Per bank write bursts (Count)
system.mem_ctrl.dram.perBankWrBursts::3         65747                       # Per bank write bursts (Count)
system.mem_ctrl.dram.perBankWrBursts::4         65806                       # Per bank write bursts (Count)
system.mem_ctrl.dram.perBankWrBursts::5         65875                       # Per bank write bursts (Count)
system.mem_ctrl.dram.perBankWrBursts::6         65941                       # Per bank write bursts (Count)
system.mem_ctrl.dram.perBankWrBursts::7         65675                       # Per bank write bursts (Count)
system.mem_ctrl.dram.perBankWrBursts::8         65763                       # Per bank write bursts (Count)
system.mem_ctrl.dram.perBankWrBursts::9         65752                       # Per bank write bursts (Count)
system.mem_ctrl.dram.perBankWrBursts::10        65782                       # Per bank write bursts (Count)
system.mem_ctrl.dram.perBankWrBursts::11        65682                       # Per bank write bursts (Count)
system.mem_ctrl.dram.perBankWrBursts::12        65628                       # Per bank write bursts (Count)
system.mem_ctrl.dram.perBankWrBursts::13        65667                       # Per bank write bursts (Count)
system.mem_ctrl.dram.perBankWrBursts::14        65698                       # Per bank write bursts (Count)
system.mem_ctrl.dram.perBankWrBursts::15        65819                       # Per bank write bursts (Count)
system.mem_ctrl.dram.totQLat               9979999750                       # Total ticks spent queuing (Tick)
system.mem_ctrl.dram.totBusLat             5261155000                       # Total ticks spent in databus transfers (Tick)
system.mem_ctrl.dram.totMemAccLat         29709331000                       # Total ticks spent from burst creation until serviced by the DRAM (Tick)
system.mem_ctrl.dram.avgQLat                  9484.61                       # Average queueing delay per DRAM burst ((Tick/Count))
system.mem_ctrl.dram.avgBusLat                5000.00                       # Average bus latency per DRAM burst ((Tick/Count))
system.mem_ctrl.dram.avgMemAccLat            28234.61                       # Average memory access latency per DRAM burst ((Tick/Count))
system.mem_ctrl.dram.readRowHits               946414                       # Number of row buffer hits during reads (Count)
system.mem_ctrl.dram.writeRowHits             1002090                       # Number of row buffer hits during writes (Count)
system.mem_ctrl.dram.readRowHitRate             89.94                       # Row buffer hit rate for reads (Ratio)
system.mem_ctrl.dram.writeRowHitRate            95.18                       # Row buffer hit rate for writes (Ratio)
system.mem_ctrl.dram.bytesPerActivate::samples       156606                       # Bytes accessed per row activation (Byte)
system.mem_ctrl.dram.bytesPerActivate::mean   860.290104                       # Bytes accessed per row activation (Byte)
system.mem_ctrl.dram.bytesPerActivate::gmean   740.826233                       # Bytes accessed per row activation (Byte)
system.mem_ctrl.dram.bytesPerActivate::stdev   301.574298                       # Bytes accessed per row activation (Byte)
system.mem_ctrl.dram.bytesPerActivate::0-127         6193      3.95%      3.95% # Bytes accessed per row activation (Byte)
system.mem_ctrl.dram.bytesPerActivate::128-255         8003      5.11%      9.06% # Bytes accessed per row activation (Byte)
system.mem_ctrl.dram.bytesPerActivate::256-383         5630      3.60%     12.66% # Bytes accessed per row activation (Byte)
system.mem_ctrl.dram.bytesPerActivate::384-511         4289      2.74%     15.40% # Bytes accessed per row activation (Byte)
system.mem_ctrl.dram.bytesPerActivate::512-639         4477      2.86%     18.26% # Bytes accessed per row activation (Byte)
system.mem_ctrl.dram.bytesPerActivate::640-767         4441      2.84%     21.09% # Bytes accessed per row activation (Byte)
system.mem_ctrl.dram.bytesPerActivate::768-895         6265      4.00%     25.09% # Bytes accessed per row activation (Byte)
system.mem_ctrl.dram.bytesPerActivate::896-1023         9228      5.89%     30.99% # Bytes accessed per row activation (Byte)
system.mem_ctrl.dram.bytesPerActivate::1024-1151       108080     69.01%    100.00% # Bytes accessed per row activation (Byte)
system.mem_ctrl.dram.bytesPerActivate::total       156606                       # Bytes accessed per row activation (Byte)
system.mem_ctrl.dram.bytesRead               67342784                       # Total number of bytes read from DRAM (Byte)
system.mem_ctrl.dram.bytesWritten            67384576                       # Total number of bytes written to DRAM (Byte)
system.mem_ctrl.dram.avgRdBW               936.135706                       # Average DRAM read bandwidth in MiBytes/s ((Byte/Second))
system.mem_ctrl.dram.avgWrBW               936.716659                       # Average DRAM write bandwidth in MiBytes/s ((Byte/Second))
system.mem_ctrl.dram.peakBW                  12800.00                       # Theoretical peak bandwidth in MiByte/s ((Byte/Second))
system.mem_ctrl.dram.busUtil                    14.63                       # Data bus utilization in percentage (Ratio)
system.mem_ctrl.dram.busUtilRead                 7.31                       # Data bus utilization in percentage for reads (Ratio)
system.mem_ctrl.dram.busUtilWrite                7.32                       # Data bus utilization in percentage for writes (Ratio)
system.mem_ctrl.dram.pageHitRate                92.56                       # Row buffer hit rate, read and write combined (Ratio)
system.mem_ctrl.dram.power_state.pwrStateResidencyTicks::UNDEFINED 107429176000                       # Cumulative time (in ticks) in various power states (Tick)
system.mem_ctrl.dram.rank0.actEnergy        562075080                       # Energy for activate commands per rank (pJ) (Joule)
system.mem_ctrl.dram.rank0.preEnergy        298734810                       # Energy for precharge commands per rank (pJ) (Joule)
system.mem_ctrl.dram.rank0.readEnergy      3759738360                       # Energy for read commands per rank (pJ) (Joule)
system.mem_ctrl.dram.rank0.writeEnergy     2751425460                       # Energy for write commands per rank (pJ) (Joule)
system.mem_ctrl.dram.rank0.refreshEnergy 5678658960.000001                       # Energy for refresh commands per rank (pJ) (Joule)
system.mem_ctrl.dram.rank0.actBackEnergy  25714109040                       # Energy for active background per rank (pJ) (Joule)
system.mem_ctrl.dram.rank0.preBackEnergy   5970086400                       # Energy for precharge background per rank (pJ) (Joule)
system.mem_ctrl.dram.rank0.actPowerDownEnergy            0                       # Energy for active power-down per rank (pJ) (Joule)
system.mem_ctrl.dram.rank0.prePowerDownEnergy            0                       # Energy for precharge power-down per rank (pJ) (Joule)
system.mem_ctrl.dram.rank0.selfRefreshEnergy            0                       # Energy for self refresh per rank (pJ) (Joule)
system.mem_ctrl.dram.rank0.totalEnergy    44734828110                       # Total energy per rank (pJ) (Joule)
system.mem_ctrl.dram.rank0.averagePower    621.861281                       # Core power per rank (mW) (Watt)
system.mem_ctrl.dram.rank0.totalIdleTime            0                       # Total Idle time Per DRAM Rank (Tick)
system.mem_ctrl.dram.rank0.pwrStateTime::IDLE  15215691750                       # Time in different power states (Tick)
system.mem_ctrl.dram.rank0.pwrStateTime::REF   2402140000                       # Time in different power states (Tick)
system.mem_ctrl.dram.rank0.pwrStateTime::SREF            0                       # Time in different power states (Tick)
system.mem_ctrl.dram.rank0.pwrStateTime::PRE_PDN            0                       # Time in different power states (Tick)
system.mem_ctrl.dram.rank0.pwrStateTime::ACT  54319858500                       # Time in different power states (Tick)
system.mem_ctrl.dram.rank0.pwrStateTime::ACT_PDN            0                       # Time in different power states (Tick)
system.mem_ctrl.dram.rank1.actEnergy        556148880                       # Energy for activate commands per rank (pJ) (Joule)
system.mem_ctrl.dram.rank1.preEnergy        295588755                       # Energy for precharge commands per rank (pJ) (Joule)
system.mem_ctrl.dram.rank1.readEnergy      3753269520                       # Energy for read commands per rank (pJ) (Joule)
system.mem_ctrl.dram.rank1.writeEnergy     2744629020                       # Energy for write commands per rank (pJ) (Joule)
system.mem_ctrl.dram.rank1.refreshEnergy 5678658960.000001                       # Energy for refresh commands per rank (pJ) (Joule)
system.mem_ctrl.dram.rank1.actBackEnergy  25716011700                       # Energy for active background per rank (pJ) (Joule)
system.mem_ctrl.dram.rank1.preBackEnergy   5968214880                       # Energy for precharge background per rank (pJ) (Joule)
system.mem_ctrl.dram.rank1.actPowerDownEnergy            0                       # Energy for active power-down per rank (pJ) (Joule)
system.mem_ctrl.dram.rank1.prePowerDownEnergy            0                       # Energy for precharge power-down per rank (pJ) (Joule)
system.mem_ctrl.dram.rank1.selfRefreshEnergy            0                       # Energy for self refresh per rank (pJ) (Joule)
system.mem_ctrl.dram.rank1.totalEnergy    44712521715                       # Total energy per rank (pJ) (Joule)
system.mem_ctrl.dram.rank1.averagePower    621.551198                       # Core power per rank (mW) (Watt)
system.mem_ctrl.dram.rank1.totalIdleTime            0                       # Total Idle time Per DRAM Rank (Tick)
system.mem_ctrl.dram.rank1.pwrStateTime::IDLE  15211069750                       # Time in different power states (Tick)
system.mem_ctrl.dram.rank1.pwrStateTime::REF   2402140000                       # Time in different power states (Tick)
system.mem_ctrl.dram.rank1.pwrStateTime::SREF            0                       # Time in different power states (Tick)
system.mem_ctrl.dram.rank1.pwrStateTime::PRE_PDN            0                       # Time in different power states (Tick)
system.mem_ctrl.dram.rank1.pwrStateTime::ACT  54324492750                       # Time in different power states (Tick)
system.mem_ctrl.dram.rank1.pwrStateTime::ACT_PDN            0                       # Time in different power states (Tick)
system.mem_ctrl.power_state.pwrStateResidencyTicks::UNDEFINED 107429176000                       # Cumulative time (in ticks) in various power states (Tick)
system.workload.inst.arm                            0                       # number of arm instructions executed (Count)
system.workload.inst.quiesce                        0                       # number of quiesce instructions executed (Count)

---------- End Simulation Statistics   ----------
