
---------- Begin Simulation Statistics ----------
simSeconds                                   0.012040                       # Number of seconds simulated (Second)
simTicks                                  12040138000                       # Number of ticks simulated (Tick)
finalTick                                 21386738000                       # Number of ticks from beginning of simulation (restored from checkpoints and never reset) (Tick)
simFreq                                  1000000000000                       # The number of ticks per simulated second ((Tick/Second))
hostSeconds                                     33.43                       # Real time elapsed on the host (Second)
hostTickRate                                360174821                       # The number of ticks simulated per host second (ticks/s) ((Tick/Second))
hostMemory                                    9646224                       # Number of bytes of host memory used (Byte)
simInsts                                      6464554                       # Number of instructions simulated (Count)
simOps                                       12337784                       # Number of ops (including micro ops) simulated (Count)
hostInstRate                                   193383                       # Simulator instruction rate (inst/s) ((Count/Second))
hostOpRate                                     369077                       # Simulator op (including micro ops) rate (op/s) ((Count/Second))
system.caches.delayHistogram::bucket_size            8                       # delay histogram for all message (Unspecified)
system.caches.delayHistogram::max_bucket           79                       # delay histogram for all message (Unspecified)
system.caches.delayHistogram::samples          776689                       # delay histogram for all message (Unspecified)
system.caches.delayHistogram::mean           0.216903                       # delay histogram for all message (Unspecified)
system.caches.delayHistogram::stdev          1.330795                       # delay histogram for all message (Unspecified)
system.caches.delayHistogram             |      772299     99.43%     99.43% |        3202      0.41%     99.85% |         812      0.10%     99.95% |         299      0.04%     99.99% |          59      0.01%    100.00% |           8      0.00%    100.00% |           7      0.00%    100.00% |           2      0.00%    100.00% |           1      0.00%    100.00% |           0      0.00%    100.00% # delay histogram for all message (Unspecified)
system.caches.delayHistogram::total            776689                       # delay histogram for all message (Unspecified)
system.caches.m_outstandReqHistSeqr::bucket_size            1                       (Unspecified)
system.caches.m_outstandReqHistSeqr::max_bucket            9                       (Unspecified)
system.caches.m_outstandReqHistSeqr::samples      1048587                       (Unspecified)
system.caches.m_outstandReqHistSeqr::mean     1.000038                       (Unspecified)
system.caches.m_outstandReqHistSeqr::gmean     1.000026                       (Unspecified)
system.caches.m_outstandReqHistSeqr::stdev     0.006478                       (Unspecified)
system.caches.m_outstandReqHistSeqr      |           0      0.00%      0.00% |     1048549    100.00%    100.00% |          36      0.00%    100.00% |           2      0.00%    100.00% |           0      0.00%    100.00% |           0      0.00%    100.00% |           0      0.00%    100.00% |           0      0.00%    100.00% |           0      0.00%    100.00% |           0      0.00%    100.00% (Unspecified)
system.caches.m_outstandReqHistSeqr::total      1048587                       (Unspecified)
system.caches.m_latencyHistSeqr::bucket_size           64                       (Unspecified)
system.caches.m_latencyHistSeqr::max_bucket          639                       (Unspecified)
system.caches.m_latencyHistSeqr::samples      1048587                       (Unspecified)
system.caches.m_latencyHistSeqr::mean        9.482767                       (Unspecified)
system.caches.m_latencyHistSeqr::gmean       1.679181                       (Unspecified)
system.caches.m_latencyHistSeqr::stdev      27.062641                       (Unspecified)
system.caches.m_latencyHistSeqr          |     1033243     98.54%     98.54% |        5742      0.55%     99.08% |        3210      0.31%     99.39% |        4846      0.46%     99.85% |        1040      0.10%     99.95% |         387      0.04%     99.99% |           2      0.00%     99.99% |          56      0.01%     99.99% |          61      0.01%    100.00% |           0      0.00%    100.00% (Unspecified)
system.caches.m_latencyHistSeqr::total        1048587                       (Unspecified)
system.caches.m_hitLatencyHistSeqr::bucket_size            1                       (Unspecified)
system.caches.m_hitLatencyHistSeqr::max_bucket            9                       (Unspecified)
system.caches.m_hitLatencyHistSeqr::samples       917508                       (Unspecified)
system.caches.m_hitLatencyHistSeqr::mean            1                       (Unspecified)
system.caches.m_hitLatencyHistSeqr::gmean            1                       (Unspecified)
system.caches.m_hitLatencyHistSeqr       |           0      0.00%      0.00% |      917508    100.00%    100.00% |           0      0.00%    100.00% |           0      0.00%    100.00% |           0      0.00%    100.00% |           0      0.00%    100.00% |           0      0.00%    100.00% |           0      0.00%    100.00% |           0      0.00%    100.00% |           0      0.00%    100.00% (Unspecified)
system.caches.m_hitLatencyHistSeqr::total       917508                       (Unspecified)
system.caches.m_missLatencyHistSeqr::bucket_size           64                       (Unspecified)
system.caches.m_missLatencyHistSeqr::max_bucket          639                       (Unspecified)
system.caches.m_missLatencyHistSeqr::samples       131079                       (Unspecified)
system.caches.m_missLatencyHistSeqr::mean    68.859222                       (Unspecified)
system.caches.m_missLatencyHistSeqr::gmean    63.197987                       (Unspecified)
system.caches.m_missLatencyHistSeqr::stdev    42.773932                       (Unspecified)
system.caches.m_missLatencyHistSeqr      |      115735     88.29%     88.29% |        5742      4.38%     92.67% |        3210      2.45%     95.12% |        4846      3.70%     98.82% |        1040      0.79%     99.61% |         387      0.30%     99.91% |           2      0.00%     99.91% |          56      0.04%     99.95% |          61      0.05%    100.00% |           0      0.00%    100.00% (Unspecified)
system.caches.m_missLatencyHistSeqr::total       131079                       (Unspecified)
system.caches.delayVCHist.vnet_1::bucket_size            2                       # delay histogram for vnet_1 (Unspecified)
system.caches.delayVCHist.vnet_1::max_bucket           19                       # delay histogram for vnet_1 (Unspecified)
system.caches.delayVCHist.vnet_1::samples       388360                       # delay histogram for vnet_1 (Unspecified)
system.caches.delayVCHist.vnet_1::mean       0.046586                       # delay histogram for vnet_1 (Unspecified)
system.caches.delayVCHist.vnet_1::stdev      0.524715                       # delay histogram for vnet_1 (Unspecified)
system.caches.delayVCHist.vnet_1         |      384609     99.03%     99.03% |        1120      0.29%     99.32% |         808      0.21%     99.53% |        1054      0.27%     99.80% |         738      0.19%     99.99% |          13      0.00%    100.00% |           6      0.00%    100.00% |           2      0.00%    100.00% |           9      0.00%    100.00% |           1      0.00%    100.00% # delay histogram for vnet_1 (Unspecified)
system.caches.delayVCHist.vnet_1::total        388360                       # delay histogram for vnet_1 (Unspecified)
system.caches.delayVCHist.vnet_2::bucket_size            8                       # delay histogram for vnet_2 (Unspecified)
system.caches.delayVCHist.vnet_2::max_bucket           79                       # delay histogram for vnet_2 (Unspecified)
system.caches.delayVCHist.vnet_2::samples       388329                       # delay histogram for vnet_2 (Unspecified)
system.caches.delayVCHist.vnet_2::mean       0.387234                       # delay histogram for vnet_2 (Unspecified)
system.caches.delayVCHist.vnet_2::stdev      1.791315                       # delay histogram for vnet_2 (Unspecified)
system.caches.delayVCHist.vnet_2         |      384708     99.07%     99.07% |        2443      0.63%     99.70% |         802      0.21%     99.90% |         299      0.08%     99.98% |          59      0.02%    100.00% |           8      0.00%    100.00% |           7      0.00%    100.00% |           2      0.00%    100.00% |           1      0.00%    100.00% |           0      0.00%    100.00% # delay histogram for vnet_2 (Unspecified)
system.caches.delayVCHist.vnet_2::total        388329                       # delay histogram for vnet_2 (Unspecified)
system.caches.L1Cache_Controller.Load         1513885      0.00%      0.00% (Unspecified)
system.caches.L1Cache_Controller.Ifetch        257710      0.00%      0.00% (Unspecified)
system.caches.L1Cache_Controller.Store         211537      0.00%      0.00% (Unspecified)
system.caches.L1Cache_Controller.Data          388360      0.00%      0.00% (Unspecified)
system.caches.L1Cache_Controller.Replacement       388329      0.00%      0.00% (Unspecified)
system.caches.L1Cache_Controller.Writeback_Ack       388329      0.00%      0.00% (Unspecified)
system.caches.L1Cache_Controller.I.Load        249128      0.00%      0.00% (Unspecified)
system.caches.L1Cache_Controller.I.Ifetch       107911      0.00%      0.00% (Unspecified)
system.caches.L1Cache_Controller.I.Store        31322      0.00%      0.00% (Unspecified)
system.caches.L1Cache_Controller.M.Load       1264757      0.00%      0.00% (Unspecified)
system.caches.L1Cache_Controller.M.Ifetch       149799      0.00%      0.00% (Unspecified)
system.caches.L1Cache_Controller.M.Store       180215      0.00%      0.00% (Unspecified)
system.caches.L1Cache_Controller.M.Replacement       388329      0.00%      0.00% (Unspecified)
system.caches.L1Cache_Controller.MI.Writeback_Ack       388329      0.00%      0.00% (Unspecified)
system.caches.L1Cache_Controller.IS.Data       357038      0.00%      0.00% (Unspecified)
system.caches.L1Cache_Controller.IM.Data        31322      0.00%      0.00% (Unspecified)
system.caches.Directory_Controller.GETX        388361      0.00%      0.00% (Unspecified)
system.caches.Directory_Controller.PUTX        388329      0.00%      0.00% (Unspecified)
system.caches.Directory_Controller.Memory_Data       388361      0.00%      0.00% (Unspecified)
system.caches.Directory_Controller.Memory_Ack       388329      0.00%      0.00% (Unspecified)
system.caches.Directory_Controller.I.GETX       388361      0.00%      0.00% (Unspecified)
system.caches.Directory_Controller.M.PUTX       388329      0.00%      0.00% (Unspecified)
system.caches.Directory_Controller.IM.Memory_Data       388361      0.00%      0.00% (Unspecified)
system.caches.Directory_Controller.MI.Memory_Ack       388329      0.00%      0.00% (Unspecified)
system.caches.MachineType.Directory.miss_mach_latency_hist_seqr::bucket_size           64                       (Unspecified)
system.caches.MachineType.Directory.miss_mach_latency_hist_seqr::max_bucket          639                       (Unspecified)
system.caches.MachineType.Directory.miss_mach_latency_hist_seqr::samples       131079                       (Unspecified)
system.caches.MachineType.Directory.miss_mach_latency_hist_seqr::mean    68.859222                       (Unspecified)
system.caches.MachineType.Directory.miss_mach_latency_hist_seqr::gmean    63.197987                       (Unspecified)
system.caches.MachineType.Directory.miss_mach_latency_hist_seqr::stdev    42.773932                       (Unspecified)
system.caches.MachineType.Directory.miss_mach_latency_hist_seqr |      115735     88.29%     88.29% |        5742      4.38%     92.67% |        3210      2.45%     95.12% |        4846      3.70%     98.82% |        1040      0.79%     99.61% |         387      0.30%     99.91% |           2      0.00%     99.91% |          56      0.04%     99.95% |          61      0.05%    100.00% |           0      0.00%    100.00% (Unspecified)
system.caches.MachineType.Directory.miss_mach_latency_hist_seqr::total       131079                       (Unspecified)
system.caches.MachineType.Directory.incomplete_times_seqr       388359                       (Unspecified)
system.caches.RequestType.LD.latency_hist_seqr::bucket_size           64                       (Unspecified)
system.caches.RequestType.LD.latency_hist_seqr::max_bucket          639                       (Unspecified)
system.caches.RequestType.LD.latency_hist_seqr::samples      1048579                       (Unspecified)
system.caches.RequestType.LD.latency_hist_seqr::mean     9.482208                       (Unspecified)
system.caches.RequestType.LD.latency_hist_seqr::gmean     1.679144                       (Unspecified)
system.caches.RequestType.LD.latency_hist_seqr::stdev    27.061293                       (Unspecified)
system.caches.RequestType.LD.latency_hist_seqr |     1033240     98.54%     98.54% |        5739      0.55%     99.08% |        3209      0.31%     99.39% |        4845      0.46%     99.85% |        1040      0.10%     99.95% |         387      0.04%     99.99% |           2      0.00%     99.99% |          56      0.01%     99.99% |          61      0.01%    100.00% |           0      0.00%    100.00% (Unspecified)
system.caches.RequestType.LD.latency_hist_seqr::total      1048579                       (Unspecified)
system.caches.RequestType.LD.hit_latency_hist_seqr::bucket_size            1                       (Unspecified)
system.caches.RequestType.LD.hit_latency_hist_seqr::max_bucket            9                       (Unspecified)
system.caches.RequestType.LD.hit_latency_hist_seqr::samples       917506                       (Unspecified)
system.caches.RequestType.LD.hit_latency_hist_seqr::mean            1                       (Unspecified)
system.caches.RequestType.LD.hit_latency_hist_seqr::gmean            1                       (Unspecified)
system.caches.RequestType.LD.hit_latency_hist_seqr |           0      0.00%      0.00% |      917506    100.00%    100.00% |           0      0.00%    100.00% |           0      0.00%    100.00% |           0      0.00%    100.00% |           0      0.00%    100.00% |           0      0.00%    100.00% |           0      0.00%    100.00% |           0      0.00%    100.00% |           0      0.00%    100.00% (Unspecified)
system.caches.RequestType.LD.hit_latency_hist_seqr::total       917506                       (Unspecified)
system.caches.RequestType.LD.miss_latency_hist_seqr::bucket_size           64                       (Unspecified)
system.caches.RequestType.LD.miss_latency_hist_seqr::max_bucket          639                       (Unspecified)
system.caches.RequestType.LD.miss_latency_hist_seqr::samples       131073                       (Unspecified)
system.caches.RequestType.LD.miss_latency_hist_seqr::mean    68.857339                       (Unspecified)
system.caches.RequestType.LD.miss_latency_hist_seqr::gmean    63.196775                       (Unspecified)
system.caches.RequestType.LD.miss_latency_hist_seqr::stdev    42.772077                       (Unspecified)
system.caches.RequestType.LD.miss_latency_hist_seqr |      115734     88.30%     88.30% |        5739      4.38%     92.68% |        3209      2.45%     95.12% |        4845      3.70%     98.82% |        1040      0.79%     99.61% |         387      0.30%     99.91% |           2      0.00%     99.91% |          56      0.04%     99.95% |          61      0.05%    100.00% |           0      0.00%    100.00% (Unspecified)
system.caches.RequestType.LD.miss_latency_hist_seqr::total       131073                       (Unspecified)
system.caches.RequestType.ST.latency_hist_seqr::bucket_size           32                       (Unspecified)
system.caches.RequestType.ST.latency_hist_seqr::max_bucket          319                       (Unspecified)
system.caches.RequestType.ST.latency_hist_seqr::samples            1                       (Unspecified)
system.caches.RequestType.ST.latency_hist_seqr::mean          206                       (Unspecified)
system.caches.RequestType.ST.latency_hist_seqr::gmean   206.000000                       (Unspecified)
system.caches.RequestType.ST.latency_hist_seqr::stdev          nan                       (Unspecified)
system.caches.RequestType.ST.latency_hist_seqr |           0      0.00%      0.00% |           0      0.00%      0.00% |           0      0.00%      0.00% |           0      0.00%      0.00% |           0      0.00%      0.00% |           0      0.00%      0.00% |           1    100.00%    100.00% |           0      0.00%    100.00% |           0      0.00%    100.00% |           0      0.00%    100.00% (Unspecified)
system.caches.RequestType.ST.latency_hist_seqr::total            1                       (Unspecified)
system.caches.RequestType.ST.miss_latency_hist_seqr::bucket_size           32                       (Unspecified)
system.caches.RequestType.ST.miss_latency_hist_seqr::max_bucket          319                       (Unspecified)
system.caches.RequestType.ST.miss_latency_hist_seqr::samples            1                       (Unspecified)
system.caches.RequestType.ST.miss_latency_hist_seqr::mean          206                       (Unspecified)
system.caches.RequestType.ST.miss_latency_hist_seqr::gmean   206.000000                       (Unspecified)
system.caches.RequestType.ST.miss_latency_hist_seqr::stdev          nan                       (Unspecified)
system.caches.RequestType.ST.miss_latency_hist_seqr |           0      0.00%      0.00% |           0      0.00%      0.00% |           0      0.00%      0.00% |           0      0.00%      0.00% |           0      0.00%      0.00% |           0      0.00%      0.00% |           1    100.00%    100.00% |           0      0.00%    100.00% |           0      0.00%    100.00% |           0      0.00%    100.00% (Unspecified)
system.caches.RequestType.ST.miss_latency_hist_seqr::total            1                       (Unspecified)
system.caches.RequestType.IFETCH.latency_hist_seqr::bucket_size           32                       (Unspecified)
system.caches.RequestType.IFETCH.latency_hist_seqr::max_bucket          319                       (Unspecified)
system.caches.RequestType.IFETCH.latency_hist_seqr::samples            7                       (Unspecified)
system.caches.RequestType.IFETCH.latency_hist_seqr::mean    65.142857                       (Unspecified)
system.caches.RequestType.IFETCH.latency_hist_seqr::gmean    23.379033                       (Unspecified)
system.caches.RequestType.IFETCH.latency_hist_seqr::stdev    60.664181                       (Unspecified)
system.caches.RequestType.IFETCH.latency_hist_seqr |           2     28.57%     28.57% |           1     14.29%     42.86% |           3     42.86%     85.71% |           0      0.00%     85.71% |           0      0.00%     85.71% |           1     14.29%    100.00% |           0      0.00%    100.00% |           0      0.00%    100.00% |           0      0.00%    100.00% |           0      0.00%    100.00% (Unspecified)
system.caches.RequestType.IFETCH.latency_hist_seqr::total            7                       (Unspecified)
system.caches.RequestType.IFETCH.hit_latency_hist_seqr::bucket_size            1                       (Unspecified)
system.caches.RequestType.IFETCH.hit_latency_hist_seqr::max_bucket            9                       (Unspecified)
system.caches.RequestType.IFETCH.hit_latency_hist_seqr::samples            2                       (Unspecified)
system.caches.RequestType.IFETCH.hit_latency_hist_seqr::mean            1                       (Unspecified)
system.caches.RequestType.IFETCH.hit_latency_hist_seqr::gmean            1                       (Unspecified)
system.caches.RequestType.IFETCH.hit_latency_hist_seqr |           0      0.00%      0.00% |           2    100.00%    100.00% |           0      0.00%    100.00% |           0      0.00%    100.00% |           0      0.00%    100.00% |           0      0.00%    100.00% |           0      0.00%    100.00% |           0      0.00%    100.00% |           0      0.00%    100.00% |           0      0.00%    100.00% (Unspecified)
system.caches.RequestType.IFETCH.hit_latency_hist_seqr::total            2                       (Unspecified)
system.caches.RequestType.IFETCH.miss_latency_hist_seqr::bucket_size           32                       (Unspecified)
system.caches.RequestType.IFETCH.miss_latency_hist_seqr::max_bucket          319                       (Unspecified)
system.caches.RequestType.IFETCH.miss_latency_hist_seqr::samples            5                       (Unspecified)
system.caches.RequestType.IFETCH.miss_latency_hist_seqr::mean    90.800000                       (Unspecified)
system.caches.RequestType.IFETCH.miss_latency_hist_seqr::gmean    82.481616                       (Unspecified)
system.caches.RequestType.IFETCH.miss_latency_hist_seqr::stdev    51.382877                       (Unspecified)
system.caches.RequestType.IFETCH.miss_latency_hist_seqr |           0      0.00%      0.00% |           1     20.00%     20.00% |           3     60.00%     80.00% |           0      0.00%     80.00% |           0      0.00%     80.00% |           1     20.00%    100.00% |           0      0.00%    100.00% |           0      0.00%    100.00% |           0      0.00%    100.00% |           0      0.00%    100.00% (Unspecified)
system.caches.RequestType.IFETCH.miss_latency_hist_seqr::total            5                       (Unspecified)
system.caches.RequestTypeMachineType.LD.Directory.miss_type_mach_latency_hist_seqr::bucket_size           64                       (Unspecified)
system.caches.RequestTypeMachineType.LD.Directory.miss_type_mach_latency_hist_seqr::max_bucket          639                       (Unspecified)
system.caches.RequestTypeMachineType.LD.Directory.miss_type_mach_latency_hist_seqr::samples       131073                       (Unspecified)
system.caches.RequestTypeMachineType.LD.Directory.miss_type_mach_latency_hist_seqr::mean    68.857339                       (Unspecified)
system.caches.RequestTypeMachineType.LD.Directory.miss_type_mach_latency_hist_seqr::gmean    63.196775                       (Unspecified)
system.caches.RequestTypeMachineType.LD.Directory.miss_type_mach_latency_hist_seqr::stdev    42.772077                       (Unspecified)
system.caches.RequestTypeMachineType.LD.Directory.miss_type_mach_latency_hist_seqr |      115734     88.30%     88.30% |        5739      4.38%     92.68% |        3209      2.45%     95.12% |        4845      3.70%     98.82% |        1040      0.79%     99.61% |         387      0.30%     99.91% |           2      0.00%     99.91% |          56      0.04%     99.95% |          61      0.05%    100.00% |           0      0.00%    100.00% (Unspecified)
system.caches.RequestTypeMachineType.LD.Directory.miss_type_mach_latency_hist_seqr::total       131073                       (Unspecified)
system.caches.RequestTypeMachineType.ST.Directory.miss_type_mach_latency_hist_seqr::bucket_size           32                       (Unspecified)
system.caches.RequestTypeMachineType.ST.Directory.miss_type_mach_latency_hist_seqr::max_bucket          319                       (Unspecified)
system.caches.RequestTypeMachineType.ST.Directory.miss_type_mach_latency_hist_seqr::samples            1                       (Unspecified)
system.caches.RequestTypeMachineType.ST.Directory.miss_type_mach_latency_hist_seqr::mean          206                       (Unspecified)
system.caches.RequestTypeMachineType.ST.Directory.miss_type_mach_latency_hist_seqr::gmean   206.000000                       (Unspecified)
system.caches.RequestTypeMachineType.ST.Directory.miss_type_mach_latency_hist_seqr::stdev          nan                       (Unspecified)
system.caches.RequestTypeMachineType.ST.Directory.miss_type_mach_latency_hist_seqr |           0      0.00%      0.00% |           0      0.00%      0.00% |           0      0.00%      0.00% |           0      0.00%      0.00% |           0      0.00%      0.00% |           0      0.00%      0.00% |           1    100.00%    100.00% |           0      0.00%    100.00% |           0      0.00%    100.00% |           0      0.00%    100.00% (Unspecified)
system.caches.RequestTypeMachineType.ST.Directory.miss_type_mach_latency_hist_seqr::total            1                       (Unspecified)
system.caches.RequestTypeMachineType.IFETCH.Directory.miss_type_mach_latency_hist_seqr::bucket_size           32                       (Unspecified)
system.caches.RequestTypeMachineType.IFETCH.Directory.miss_type_mach_latency_hist_seqr::max_bucket          319                       (Unspecified)
system.caches.RequestTypeMachineType.IFETCH.Directory.miss_type_mach_latency_hist_seqr::samples            5                       (Unspecified)
system.caches.RequestTypeMachineType.IFETCH.Directory.miss_type_mach_latency_hist_seqr::mean    90.800000                       (Unspecified)
system.caches.RequestTypeMachineType.IFETCH.Directory.miss_type_mach_latency_hist_seqr::gmean    82.481616                       (Unspecified)
system.caches.RequestTypeMachineType.IFETCH.Directory.miss_type_mach_latency_hist_seqr::stdev    51.382877                       (Unspecified)
system.caches.RequestTypeMachineType.IFETCH.Directory.miss_type_mach_latency_hist_seqr |           0      0.00%      0.00% |           1     20.00%     20.00% |           3     60.00%     80.00% |           0      0.00%     80.00% |           0      0.00%     80.00% |           1     20.00%    100.00% |           0      0.00%    100.00% |           0      0.00%    100.00% |           0      0.00%    100.00% |           0      0.00%    100.00% (Unspecified)
system.caches.RequestTypeMachineType.IFETCH.Directory.miss_type_mach_latency_hist_seqr::total            5                       (Unspecified)
system.caches.controllers0.delayHistogram::samples       776689                       # delay_histogram (Unspecified)
system.caches.controllers0.delayHistogram::mean     0.216903                       # delay_histogram (Unspecified)
system.caches.controllers0.delayHistogram::stdev     1.330795                       # delay_histogram (Unspecified)
system.caches.controllers0.delayHistogram::0-7       772299     99.43%     99.43% # delay_histogram (Unspecified)
system.caches.controllers0.delayHistogram::8-15         3202      0.41%     99.85% # delay_histogram (Unspecified)
system.caches.controllers0.delayHistogram::16-23          812      0.10%     99.95% # delay_histogram (Unspecified)
system.caches.controllers0.delayHistogram::24-31          299      0.04%     99.99% # delay_histogram (Unspecified)
system.caches.controllers0.delayHistogram::32-39           59      0.01%    100.00% # delay_histogram (Unspecified)
system.caches.controllers0.delayHistogram::40-47            8      0.00%    100.00% # delay_histogram (Unspecified)
system.caches.controllers0.delayHistogram::48-55            7      0.00%    100.00% # delay_histogram (Unspecified)
system.caches.controllers0.delayHistogram::56-63            2      0.00%    100.00% # delay_histogram (Unspecified)
system.caches.controllers0.delayHistogram::64-71            1      0.00%    100.00% # delay_histogram (Unspecified)
system.caches.controllers0.delayHistogram::total       776689                       # delay_histogram (Unspecified)
system.caches.controllers0.cacheMemory.m_demand_hits      1594771                       # Number of cache demand hits (Unspecified)
system.caches.controllers0.cacheMemory.m_demand_misses       388361                       # Number of cache demand misses (Unspecified)
system.caches.controllers0.cacheMemory.m_demand_accesses      1983132                       # Number of cache demand accesses (Unspecified)
system.caches.controllers0.forwardToCache.m_buf_msgs     0.018157                       # Average number of messages in buffer (Unspecified)
system.caches.controllers0.forwardToCache.m_stall_time  5092.827667                       # Average number of cycles messages are stalled in this MB (Unspecified)
system.caches.controllers0.mandatoryQueue.m_buf_msgs     0.146572                       # Average number of messages in buffer (Unspecified)
system.caches.controllers0.mandatoryQueue.m_stall_time  1190.329119                       # Average number of cycles messages are stalled in this MB (Unspecified)
system.caches.controllers0.power_state.pwrStateResidencyTicks::UNDEFINED  21386738000                       # Cumulative time (in ticks) in various power states (Tick)
system.caches.controllers0.requestFromCache.m_buf_msgs     0.072633                       # Average number of messages in buffer (Unspecified)
system.caches.controllers0.requestFromCache.m_stall_time  1999.999719                       # Average number of cycles messages are stalled in this MB (Unspecified)
system.caches.controllers0.responseToCache.m_buf_msgs     0.018159                       # Average number of messages in buffer (Unspecified)
system.caches.controllers0.responseToCache.m_stall_time  5014.018968                       # Average number of cycles messages are stalled in this MB (Unspecified)
system.caches.controllers1.forwardFromDir.m_buf_msgs     0.018157                       # Average number of messages in buffer (Unspecified)
system.caches.controllers1.forwardFromDir.m_stall_time   999.958853                       # Average number of cycles messages are stalled in this MB (Unspecified)
system.caches.controllers1.power_state.pwrStateResidencyTicks::UNDEFINED  21386738000                       # Cumulative time (in ticks) in various power states (Tick)
system.caches.controllers1.requestToDir.m_buf_msgs     0.036316                       # Average number of messages in buffer (Unspecified)
system.caches.controllers1.requestToDir.m_stall_time 10314.342327                       # Average number of cycles messages are stalled in this MB (Unspecified)
system.caches.controllers1.requestToMemory.m_buf_msgs     0.036354                       # Average number of messages in buffer (Unspecified)
system.caches.controllers1.requestToMemory.m_stall_time  1000.160286                       # Average number of cycles messages are stalled in this MB (Unspecified)
system.caches.controllers1.responseFromDir.m_buf_msgs     0.018159                       # Average number of messages in buffer (Unspecified)
system.caches.controllers1.responseFromDir.m_stall_time   999.996774                       # Average number of cycles messages are stalled in this MB (Unspecified)
system.caches.controllers1.responseFromMemory.m_buf_msgs     0.041787                       # Average number of messages in buffer (Unspecified)
system.caches.controllers1.responseFromMemory.m_stall_time   999.996820                       # Average number of cycles messages are stalled in this MB (Unspecified)
system.caches.network.msg_count.Control        776722                       (Unspecified)
system.caches.network.msg_byte.Control        6213776                       (Unspecified)
system.caches.network.msg_count.Data           776658                       (Unspecified)
system.caches.network.msg_byte.Data          55919376                       (Unspecified)
system.caches.network.msg_count.Response_Data       776722                       (Unspecified)
system.caches.network.msg_byte.Response_Data     55923984                       (Unspecified)
system.caches.network.msg_count.Writeback_Control       776658                       (Unspecified)
system.caches.network.msg_byte.Writeback_Control      6213264                       (Unspecified)
system.caches.network.int_link_buffers2.m_buf_msgs     0.021774                       # Average number of messages in buffer (Unspecified)
system.caches.network.int_link_buffers2.m_stall_time  7825.845019                       # Average number of cycles messages are stalled in this MB (Unspecified)
system.caches.network.int_link_buffers8.m_buf_msgs     0.010887                       # Average number of messages in buffer (Unspecified)
system.caches.network.int_link_buffers8.m_stall_time         3000                       # Average number of cycles messages are stalled in this MB (Unspecified)
system.caches.network.int_link_buffers9.m_buf_msgs     0.010887                       # Average number of messages in buffer (Unspecified)
system.caches.network.int_link_buffers9.m_stall_time         3000                       # Average number of cycles messages are stalled in this MB (Unspecified)
system.caches.network.power_state.pwrStateResidencyTicks::UNDEFINED  21386738000                       # Cumulative time (in ticks) in various power states (Tick)
system.caches.network.routers0.percent_links_utilized     5.443441                       (Unspecified)
system.caches.network.routers0.msg_count.Control::2       388361                       (Unspecified)
system.caches.network.routers0.msg_bytes.Control::2      3106888                       (Unspecified)
system.caches.network.routers0.msg_count.Data::2       388329                       (Unspecified)
system.caches.network.routers0.msg_bytes.Data::2     27959688                       (Unspecified)
system.caches.network.routers0.msg_count.Response_Data::4       388361                       (Unspecified)
system.caches.network.routers0.msg_bytes.Response_Data::4     27961992                       (Unspecified)
system.caches.network.routers0.msg_count.Writeback_Control::3       388329                       (Unspecified)
system.caches.network.routers0.msg_bytes.Writeback_Control::3      3106632                       (Unspecified)
system.caches.network.routers0.port_buffers3.m_buf_msgs     0.018157                       # Average number of messages in buffer (Unspecified)
system.caches.network.routers0.port_buffers3.m_stall_time  4092.869188                       # Average number of cycles messages are stalled in this MB (Unspecified)
system.caches.network.routers0.port_buffers4.m_buf_msgs     0.018159                       # Average number of messages in buffer (Unspecified)
system.caches.network.routers0.port_buffers4.m_stall_time  4014.022569                       # Average number of cycles messages are stalled in this MB (Unspecified)
system.caches.network.routers0.port_buffers7.m_buf_msgs     0.144000                       # Average number of messages in buffer (Unspecified)
system.caches.network.routers0.port_buffers7.m_stall_time  7314.344291                       # Average number of cycles messages are stalled in this MB (Unspecified)
system.caches.network.routers0.power_state.pwrStateResidencyTicks::UNDEFINED  21386738000                       # Cumulative time (in ticks) in various power states (Tick)
system.caches.network.routers0.throttle00.link_utilization     5.443430                       (Unspecified)
system.caches.network.routers0.throttle00.msg_count.Response_Data::4       388361                       (Unspecified)
system.caches.network.routers0.throttle00.msg_bytes.Response_Data::4     27961992                       (Unspecified)
system.caches.network.routers0.throttle00.msg_count.Writeback_Control::3       388329                       (Unspecified)
system.caches.network.routers0.throttle00.msg_bytes.Writeback_Control::3      3106632                       (Unspecified)
system.caches.network.routers0.throttle01.link_utilization     5.443451                       (Unspecified)
system.caches.network.routers0.throttle01.msg_count.Control::2       388361                       (Unspecified)
system.caches.network.routers0.throttle01.msg_bytes.Control::2      3106888                       (Unspecified)
system.caches.network.routers0.throttle01.msg_count.Data::2       388329                       (Unspecified)
system.caches.network.routers0.throttle01.msg_bytes.Data::2     27959688                       (Unspecified)
system.caches.network.routers1.percent_links_utilized     5.443453                       (Unspecified)
system.caches.network.routers1.msg_count.Control::2       388361                       (Unspecified)
system.caches.network.routers1.msg_bytes.Control::2      3106888                       (Unspecified)
system.caches.network.routers1.msg_count.Data::2       388329                       (Unspecified)
system.caches.network.routers1.msg_bytes.Data::2     27959688                       (Unspecified)
system.caches.network.routers1.msg_count.Response_Data::4       388361                       (Unspecified)
system.caches.network.routers1.msg_bytes.Response_Data::4     27961992                       (Unspecified)
system.caches.network.routers1.msg_count.Writeback_Control::3       388329                       (Unspecified)
system.caches.network.routers1.msg_bytes.Writeback_Control::3      3106632                       (Unspecified)
system.caches.network.routers1.port_buffers2.m_buf_msgs     0.036316                       # Average number of messages in buffer (Unspecified)
system.caches.network.routers1.port_buffers2.m_stall_time  9314.343076                       # Average number of cycles messages are stalled in this MB (Unspecified)
system.caches.network.routers1.port_buffers6.m_buf_msgs     0.021673                       # Average number of messages in buffer (Unspecified)
system.caches.network.routers1.port_buffers6.m_stall_time  2092.951950                       # Average number of cycles messages are stalled in this MB (Unspecified)
system.caches.network.routers1.port_buffers7.m_buf_msgs     0.018582                       # Average number of messages in buffer (Unspecified)
system.caches.network.routers1.port_buffers7.m_stall_time  2014.029489                       # Average number of cycles messages are stalled in this MB (Unspecified)
system.caches.network.routers1.power_state.pwrStateResidencyTicks::UNDEFINED  21386738000                       # Cumulative time (in ticks) in various power states (Tick)
system.caches.network.routers1.throttle00.link_utilization     5.443459                       (Unspecified)
system.caches.network.routers1.throttle00.msg_count.Control::2       388361                       (Unspecified)
system.caches.network.routers1.throttle00.msg_bytes.Control::2      3106888                       (Unspecified)
system.caches.network.routers1.throttle00.msg_count.Data::2       388329                       (Unspecified)
system.caches.network.routers1.throttle00.msg_bytes.Data::2     27959688                       (Unspecified)
system.caches.network.routers1.throttle01.link_utilization     5.443447                       (Unspecified)
system.caches.network.routers1.throttle01.msg_count.Response_Data::4       388361                       (Unspecified)
system.caches.network.routers1.throttle01.msg_bytes.Response_Data::4     27961992                       (Unspecified)
system.caches.network.routers1.throttle01.msg_count.Writeback_Control::3       388329                       (Unspecified)
system.caches.network.routers1.throttle01.msg_bytes.Writeback_Control::3      3106632                       (Unspecified)
system.caches.power_state.pwrStateResidencyTicks::UNDEFINED  21386738000                       # Cumulative time (in ticks) in various power states (Tick)
system.caches.sequencers.power_state.pwrStateResidencyTicks::UNDEFINED  21386738000                       # Cumulative time (in ticks) in various power states (Tick)
system.caches.sys_port_proxy.power_state.pwrStateResidencyTicks::UNDEFINED  21386738000                       # Cumulative time (in ticks) in various power states (Tick)
system.clk_domain.clock                          1000                       # Clock period in ticks (Tick)
system.clk_domain.voltage_domain.voltage            1                       # Voltage in Volts (Volt)
system.cpu.numCycles                         12040138                       # Number of cpu cycles simulated (Cycle)
system.cpu.numWorkItemsStarted                      0                       # Number of work items this cpu started (Count)
system.cpu.numWorkItemsCompleted                    0                       # Number of work items this cpu completed (Count)
system.cpu.instsAdded                         8388728                       # Number of instructions added to the IQ (excludes non-spec) (Count)
system.cpu.nonSpecInstsAdded                        1                       # Number of non-speculative instructions added to the IQ (Count)
system.cpu.instsIssued                        8388722                       # Number of instructions issued (Count)
system.cpu.squashedInstsExamined                  111                       # Number of squashed instructions iterated over during squash; mainly for profiling (Count)
system.cpu.squashedOperandsExamined                42                       # Number of squashed operands that are examined and possibly removed from graph (Count)
system.cpu.numIssuedDist::samples            12040024                       # Number of insts issued each cycle (Count)
system.cpu.numIssuedDist::mean               0.696736                       # Number of insts issued each cycle (Count)
system.cpu.numIssuedDist::stdev              1.286711                       # Number of insts issued each cycle (Count)
system.cpu.numIssuedDist::underflows                0      0.00%      0.00% # Number of insts issued each cycle (Count)
system.cpu.numIssuedDist::0                   8413700     69.88%     69.88% # Number of insts issued each cycle (Count)
system.cpu.numIssuedDist::1                   1354407     11.25%     81.13% # Number of insts issued each cycle (Count)
system.cpu.numIssuedDist::2                    961178      7.98%     89.11% # Number of insts issued each cycle (Count)
system.cpu.numIssuedDist::3                    393213      3.27%     92.38% # Number of insts issued each cycle (Count)
system.cpu.numIssuedDist::4                    655352      5.44%     97.82% # Number of insts issued each cycle (Count)
system.cpu.numIssuedDist::5                    262142      2.18%    100.00% # Number of insts issued each cycle (Count)
system.cpu.numIssuedDist::6                        24      0.00%    100.00% # Number of insts issued each cycle (Count)
system.cpu.numIssuedDist::7                         6      0.00%    100.00% # Number of insts issued each cycle (Count)
system.cpu.numIssuedDist::8                         2      0.00%    100.00% # Number of insts issued each cycle (Count)
system.cpu.numIssuedDist::overflows                 0      0.00%    100.00% # Number of insts issued each cycle (Count)
system.cpu.numIssuedDist::min_value                 0                       # Number of insts issued each cycle (Count)
system.cpu.numIssuedDist::max_value                 8                       # Number of insts issued each cycle (Count)
system.cpu.numIssuedDist::total              12040024                       # Number of insts issued each cycle (Count)
system.cpu.statFuBusy::No_OpClass                   0      0.00%      0.00% # attempts to use FU when none available (Count)
system.cpu.statFuBusy::IntAlu                      24    100.00%    100.00% # attempts to use FU when none available (Count)
system.cpu.statFuBusy::IntMult                      0      0.00%    100.00% # attempts to use FU when none available (Count)
system.cpu.statFuBusy::IntDiv                       0      0.00%    100.00% # attempts to use FU when none available (Count)
system.cpu.statFuBusy::FloatAdd                     0      0.00%    100.00% # attempts to use FU when none available (Count)
system.cpu.statFuBusy::FloatCmp                     0      0.00%    100.00% # attempts to use FU when none available (Count)
system.cpu.statFuBusy::FloatCvt                     0      0.00%    100.00% # attempts to use FU when none available (Count)
system.cpu.statFuBusy::FloatMult                    0      0.00%    100.00% # attempts to use FU when none available (Count)
system.cpu.statFuBusy::FloatMultAcc                 0      0.00%    100.00% # attempts to use FU when none available (Count)
system.cpu.statFuBusy::FloatDiv                     0      0.00%    100.00% # attempts to use FU when none available (Count)
system.cpu.statFuBusy::FloatMisc                    0      0.00%    100.00% # attempts to use FU when none available (Count)
system.cpu.statFuBusy::FloatSqrt                    0      0.00%    100.00% # attempts to use FU when none available (Count)
system.cpu.statFuBusy::SimdAdd                      0      0.00%    100.00% # attempts to use FU when none available (Count)
system.cpu.statFuBusy::SimdAddAcc                   0      0.00%    100.00% # attempts to use FU when none available (Count)
system.cpu.statFuBusy::SimdAlu                      0      0.00%    100.00% # attempts to use FU when none available (Count)
system.cpu.statFuBusy::SimdCmp                      0      0.00%    100.00% # attempts to use FU when none available (Count)
system.cpu.statFuBusy::SimdCvt                      0      0.00%    100.00% # attempts to use FU when none available (Count)
system.cpu.statFuBusy::SimdMisc                     0      0.00%    100.00% # attempts to use FU when none available (Count)
system.cpu.statFuBusy::SimdMult                     0      0.00%    100.00% # attempts to use FU when none available (Count)
system.cpu.statFuBusy::SimdMultAcc                  0      0.00%    100.00% # attempts to use FU when none available (Count)
system.cpu.statFuBusy::SimdShift                    0      0.00%    100.00% # attempts to use FU when none available (Count)
system.cpu.statFuBusy::SimdShiftAcc                 0      0.00%    100.00% # attempts to use FU when none available (Count)
system.cpu.statFuBusy::SimdDiv                      0      0.00%    100.00% # attempts to use FU when none available (Count)
system.cpu.statFuBusy::SimdSqrt                     0      0.00%    100.00% # attempts to use FU when none available (Count)
system.cpu.statFuBusy::SimdFloatAdd                 0      0.00%    100.00% # attempts to use FU when none available (Count)
system.cpu.statFuBusy::SimdFloatAlu                 0      0.00%    100.00% # attempts to use FU when none available (Count)
system.cpu.statFuBusy::SimdFloatCmp                 0      0.00%    100.00% # attempts to use FU when none available (Count)
system.cpu.statFuBusy::SimdFloatCvt                 0      0.00%    100.00% # attempts to use FU when none available (Count)
system.cpu.statFuBusy::SimdFloatDiv                 0      0.00%    100.00% # attempts to use FU when none available (Count)
system.cpu.statFuBusy::SimdFloatMisc                0      0.00%    100.00% # attempts to use FU when none available (Count)
system.cpu.statFuBusy::SimdFloatMult                0      0.00%    100.00% # attempts to use FU when none available (Count)
system.cpu.statFuBusy::SimdFloatMultAcc             0      0.00%    100.00% # attempts to use FU when none available (Count)
system.cpu.statFuBusy::SimdFloatSqrt                0      0.00%    100.00% # attempts to use FU when none available (Count)
system.cpu.statFuBusy::SimdReduceAdd                0      0.00%    100.00% # attempts to use FU when none available (Count)
system.cpu.statFuBusy::SimdReduceAlu                0      0.00%    100.00% # attempts to use FU when none available (Count)
system.cpu.statFuBusy::SimdReduceCmp                0      0.00%    100.00% # attempts to use FU when none available (Count)
system.cpu.statFuBusy::SimdFloatReduceAdd            0      0.00%    100.00% # attempts to use FU when none available (Count)
system.cpu.statFuBusy::SimdFloatReduceCmp            0      0.00%    100.00% # attempts to use FU when none available (Count)
system.cpu.statFuBusy::SimdAes                      0      0.00%    100.00% # attempts to use FU when none available (Count)
system.cpu.statFuBusy::SimdAesMix                   0      0.00%    100.00% # attempts to use FU when none available (Count)
system.cpu.statFuBusy::SimdSha1Hash                 0      0.00%    100.00% # attempts to use FU when none available (Count)
system.cpu.statFuBusy::SimdSha1Hash2                0      0.00%    100.00% # attempts to use FU when none available (Count)
system.cpu.statFuBusy::SimdSha256Hash               0      0.00%    100.00% # attempts to use FU when none available (Count)
system.cpu.statFuBusy::SimdSha256Hash2              0      0.00%    100.00% # attempts to use FU when none available (Count)
system.cpu.statFuBusy::SimdShaSigma2                0      0.00%    100.00% # attempts to use FU when none available (Count)
system.cpu.statFuBusy::SimdShaSigma3                0      0.00%    100.00% # attempts to use FU when none available (Count)
system.cpu.statFuBusy::SimdPredAlu                  0      0.00%    100.00% # attempts to use FU when none available (Count)
system.cpu.statFuBusy::MemRead                      0      0.00%    100.00% # attempts to use FU when none available (Count)
system.cpu.statFuBusy::MemWrite                     0      0.00%    100.00% # attempts to use FU when none available (Count)
system.cpu.statFuBusy::FloatMemRead                 0      0.00%    100.00% # attempts to use FU when none available (Count)
system.cpu.statFuBusy::FloatMemWrite                0      0.00%    100.00% # attempts to use FU when none available (Count)
system.cpu.statFuBusy::IprAccess                    0      0.00%    100.00% # attempts to use FU when none available (Count)
system.cpu.statFuBusy::InstPrefetch                 0      0.00%    100.00% # attempts to use FU when none available (Count)
system.cpu.statIssuedInstType_0::No_OpClass            6      0.00%      0.00% # Number of instructions issued per FU type, per thread (Count)
system.cpu.statIssuedInstType_0::IntAlu       7340111     87.50%     87.50% # Number of instructions issued per FU type, per thread (Count)
system.cpu.statIssuedInstType_0::IntMult            0      0.00%     87.50% # Number of instructions issued per FU type, per thread (Count)
system.cpu.statIssuedInstType_0::IntDiv             0      0.00%     87.50% # Number of instructions issued per FU type, per thread (Count)
system.cpu.statIssuedInstType_0::FloatAdd            0      0.00%     87.50% # Number of instructions issued per FU type, per thread (Count)
system.cpu.statIssuedInstType_0::FloatCmp            0      0.00%     87.50% # Number of instructions issued per FU type, per thread (Count)
system.cpu.statIssuedInstType_0::FloatCvt            0      0.00%     87.50% # Number of instructions issued per FU type, per thread (Count)
system.cpu.statIssuedInstType_0::FloatMult            0      0.00%     87.50% # Number of instructions issued per FU type, per thread (Count)
system.cpu.statIssuedInstType_0::FloatMultAcc            0      0.00%     87.50% # Number of instructions issued per FU type, per thread (Count)
system.cpu.statIssuedInstType_0::FloatDiv            0      0.00%     87.50% # Number of instructions issued per FU type, per thread (Count)
system.cpu.statIssuedInstType_0::FloatMisc            0      0.00%     87.50% # Number of instructions issued per FU type, per thread (Count)
system.cpu.statIssuedInstType_0::FloatSqrt            0      0.00%     87.50% # Number of instructions issued per FU type, per thread (Count)
system.cpu.statIssuedInstType_0::SimdAdd            0      0.00%     87.50% # Number of instructions issued per FU type, per thread (Count)
system.cpu.statIssuedInstType_0::SimdAddAcc            0      0.00%     87.50% # Number of instructions issued per FU type, per thread (Count)
system.cpu.statIssuedInstType_0::SimdAlu            0      0.00%     87.50% # Number of instructions issued per FU type, per thread (Count)
system.cpu.statIssuedInstType_0::SimdCmp            0      0.00%     87.50% # Number of instructions issued per FU type, per thread (Count)
system.cpu.statIssuedInstType_0::SimdCvt            0      0.00%     87.50% # Number of instructions issued per FU type, per thread (Count)
system.cpu.statIssuedInstType_0::SimdMisc            0      0.00%     87.50% # Number of instructions issued per FU type, per thread (Count)
system.cpu.statIssuedInstType_0::SimdMult            0      0.00%     87.50% # Number of instructions issued per FU type, per thread (Count)
system.cpu.statIssuedInstType_0::SimdMultAcc            0      0.00%     87.50% # Number of instructions issued per FU type, per thread (Count)
system.cpu.statIssuedInstType_0::SimdShift            0      0.00%     87.50% # Number of instructions issued per FU type, per thread (Count)
system.cpu.statIssuedInstType_0::SimdShiftAcc            0      0.00%     87.50% # Number of instructions issued per FU type, per thread (Count)
system.cpu.statIssuedInstType_0::SimdDiv            0      0.00%     87.50% # Number of instructions issued per FU type, per thread (Count)
system.cpu.statIssuedInstType_0::SimdSqrt            0      0.00%     87.50% # Number of instructions issued per FU type, per thread (Count)
system.cpu.statIssuedInstType_0::SimdFloatAdd            0      0.00%     87.50% # Number of instructions issued per FU type, per thread (Count)
system.cpu.statIssuedInstType_0::SimdFloatAlu            0      0.00%     87.50% # Number of instructions issued per FU type, per thread (Count)
system.cpu.statIssuedInstType_0::SimdFloatCmp            0      0.00%     87.50% # Number of instructions issued per FU type, per thread (Count)
system.cpu.statIssuedInstType_0::SimdFloatCvt            0      0.00%     87.50% # Number of instructions issued per FU type, per thread (Count)
system.cpu.statIssuedInstType_0::SimdFloatDiv            0      0.00%     87.50% # Number of instructions issued per FU type, per thread (Count)
system.cpu.statIssuedInstType_0::SimdFloatMisc            0      0.00%     87.50% # Number of instructions issued per FU type, per thread (Count)
system.cpu.statIssuedInstType_0::SimdFloatMult            0      0.00%     87.50% # Number of instructions issued per FU type, per thread (Count)
system.cpu.statIssuedInstType_0::SimdFloatMultAcc            0      0.00%     87.50% # Number of instructions issued per FU type, per thread (Count)
system.cpu.statIssuedInstType_0::SimdFloatSqrt            0      0.00%     87.50% # Number of instructions issued per FU type, per thread (Count)
system.cpu.statIssuedInstType_0::SimdReduceAdd            0      0.00%     87.50% # Number of instructions issued per FU type, per thread (Count)
system.cpu.statIssuedInstType_0::SimdReduceAlu            0      0.00%     87.50% # Number of instructions issued per FU type, per thread (Count)
system.cpu.statIssuedInstType_0::SimdReduceCmp            0      0.00%     87.50% # Number of instructions issued per FU type, per thread (Count)
system.cpu.statIssuedInstType_0::SimdFloatReduceAdd            0      0.00%     87.50% # Number of instructions issued per FU type, per thread (Count)
system.cpu.statIssuedInstType_0::SimdFloatReduceCmp            0      0.00%     87.50% # Number of instructions issued per FU type, per thread (Count)
system.cpu.statIssuedInstType_0::SimdAes            0      0.00%     87.50% # Number of instructions issued per FU type, per thread (Count)
system.cpu.statIssuedInstType_0::SimdAesMix            0      0.00%     87.50% # Number of instructions issued per FU type, per thread (Count)
system.cpu.statIssuedInstType_0::SimdSha1Hash            0      0.00%     87.50% # Number of instructions issued per FU type, per thread (Count)
system.cpu.statIssuedInstType_0::SimdSha1Hash2            0      0.00%     87.50% # Number of instructions issued per FU type, per thread (Count)
system.cpu.statIssuedInstType_0::SimdSha256Hash            0      0.00%     87.50% # Number of instructions issued per FU type, per thread (Count)
system.cpu.statIssuedInstType_0::SimdSha256Hash2            0      0.00%     87.50% # Number of instructions issued per FU type, per thread (Count)
system.cpu.statIssuedInstType_0::SimdShaSigma2            0      0.00%     87.50% # Number of instructions issued per FU type, per thread (Count)
system.cpu.statIssuedInstType_0::SimdShaSigma3            0      0.00%     87.50% # Number of instructions issued per FU type, per thread (Count)
system.cpu.statIssuedInstType_0::SimdPredAlu            0      0.00%     87.50% # Number of instructions issued per FU type, per thread (Count)
system.cpu.statIssuedInstType_0::MemRead      1048592     12.50%    100.00% # Number of instructions issued per FU type, per thread (Count)
system.cpu.statIssuedInstType_0::MemWrite           13      0.00%    100.00% # Number of instructions issued per FU type, per thread (Count)
system.cpu.statIssuedInstType_0::FloatMemRead            0      0.00%    100.00% # Number of instructions issued per FU type, per thread (Count)
system.cpu.statIssuedInstType_0::FloatMemWrite            0      0.00%    100.00% # Number of instructions issued per FU type, per thread (Count)
system.cpu.statIssuedInstType_0::IprAccess            0      0.00%    100.00% # Number of instructions issued per FU type, per thread (Count)
system.cpu.statIssuedInstType_0::InstPrefetch            0      0.00%    100.00% # Number of instructions issued per FU type, per thread (Count)
system.cpu.statIssuedInstType_0::total        8388722                       # Number of instructions issued per FU type, per thread (Count)
system.cpu.issueRate                         0.696730                       # Inst issue rate ((Count/Cycle))
system.cpu.fuBusy                                  24                       # FU busy when requested (Count)
system.cpu.fuBusyRate                        0.000003                       # FU busy rate (busy events/executed inst) ((Count/Count))
system.cpu.intInstQueueReads                 28817499                       # Number of integer instruction queue reads (Count)
system.cpu.intInstQueueWrites                 8388840                       # Number of integer instruction queue writes (Count)
system.cpu.intInstQueueWakeupAccesses         8388719                       # Number of integer instruction queue wakeup accesses (Count)
system.cpu.fpInstQueueReads                         0                       # Number of floating instruction queue reads (Count)
system.cpu.fpInstQueueWrites                        0                       # Number of floating instruction queue writes (Count)
system.cpu.fpInstQueueWakeupAccesses                0                       # Number of floating instruction queue wakeup accesses (Count)
system.cpu.vecInstQueueReads                        0                       # Number of vector instruction queue reads (Count)
system.cpu.vecInstQueueWrites                       0                       # Number of vector instruction queue writes (Count)
system.cpu.vecInstQueueWakeupAccesses               0                       # Number of vector instruction queue wakeup accesses (Count)
system.cpu.intAluAccesses                     8388740                       # Number of integer alu accesses (Count)
system.cpu.fpAluAccesses                            0                       # Number of floating point alu accesses (Count)
system.cpu.vecAluAccesses                           0                       # Number of vector alu accesses (Count)
system.cpu.idleCycles                               0                       # Number of cycles IEW is idle (Cycle)
system.cpu.squashCycles                             3                       # Number of cycles IEW is squashing (Cycle)
system.cpu.blockCycles                             13                       # Number of cycles IEW is blocking (Cycle)
system.cpu.unblockCycles                            0                       # Number of cycles IEW is unblocking (Cycle)
system.cpu.dispatchedInsts                    8388729                       # Number of instructions dispatched to IQ (Count)
system.cpu.dispSquashedInsts                        0                       # Number of squashed instructions skipped by dispatch (Count)
system.cpu.dispLoadInsts                      1048595                       # Number of dispatched load instructions (Count)
system.cpu.dispStoreInsts                          15                       # Number of dispatched store instructions (Count)
system.cpu.dispNonSpecInsts                         1                       # Number of dispatched non-speculative instructions (Count)
system.cpu.iqFullEvents                             0                       # Number of times the IQ has become full, causing a stall (Count)
system.cpu.lsqFullEvents                            0                       # Number of times the LSQ has become full, causing a stall (Count)
system.cpu.memOrderViolationEvents                  0                       # Number of memory order violations (Count)
system.cpu.predictedTakenIncorrect                  1                       # Number of branches that were predicted taken incorrectly (Count)
system.cpu.predictedNotTakenIncorrect               4                       # Number of branches that were predicted not taken incorrectly (Count)
system.cpu.branchMispredicts                        5                       # Number of branch mispredicts detected at execute (Count)
system.cpu.numInsts                           8388725                       # Number of executed instructions (Count)
system.cpu.numLoadInsts                       1048593                       # Number of load instructions executed (Count)
system.cpu.numSquashedInsts                         4                       # Number of squashed instructions skipped in execute (Count)
system.cpu.numSwp                                   0                       # Number of swp insts executed (Count)
system.cpu.numNop                                   0                       # Number of nop insts executed (Count)
system.cpu.numRefs                            1048605                       # Number of memory reference insts executed (Count)
system.cpu.numBranches                        1048597                       # Number of branches executed (Count)
system.cpu.numStoreInsts                           12                       # Number of stores executed (Count)
system.cpu.numRate                           0.696730                       # Inst execution rate ((Count/Cycle))
system.cpu.instsToCommit                      8388725                       # Cumulative count of insts sent to commit (Count)
system.cpu.writebackCount                     8388719                       # Cumulative count of insts written-back (Count)
system.cpu.producerInst                       7165331                       # Number of instructions producing a value (Count)
system.cpu.consumerInst                       8519766                       # Number of instructions consuming a value (Count)
system.cpu.wbRate                            0.696729                       # Insts written-back per cycle ((Count/Cycle))
system.cpu.wbFanout                          0.841024                       # Average fanout of values written-back ((Count/Count))
system.cpu.timesIdled                               3                       # Number of times that the entire CPU went into an idle state and unscheduled itself (Count)
system.cpu.idleCycles                             114                       # Total number of cycles that the CPU has spent unscheduled due to idling (Cycle)
system.cpu.committedInsts                     4194313                       # Number of Instructions Simulated (Count)
system.cpu.committedOps                       8388625                       # Number of Ops (including micro ops) Simulated (Count)
system.cpu.cpi                               2.870586                       # CPI: Cycles Per Instruction ((Cycle/Count))
system.cpu.totalCpi                          2.870586                       # CPI: Total CPI of All Threads ((Cycle/Count))
system.cpu.ipc                               0.348361                       # IPC: Instructions Per Cycle ((Count/Cycle))
system.cpu.totalIpc                          0.348361                       # IPC: Total IPC of All Threads ((Count/Cycle))
system.cpu.intRegfileReads                    8388733                       # Number of integer regfile reads (Count)
system.cpu.intRegfileWrites                   7340109                       # Number of integer regfile writes (Count)
system.cpu.ccRegfileReads                     5242888                       # number of cc regfile reads (Count)
system.cpu.ccRegfileWrites                    4194312                       # number of cc regfile writes (Count)
system.cpu.miscRegfileReads                   3145805                       # number of misc regfile reads (Count)
system.cpu.MemDepUnit__0.insertedLoads        1048595                       # Number of loads inserted to the mem dependence unit. (Count)
system.cpu.MemDepUnit__0.insertedStores            15                       # Number of stores inserted to the mem dependence unit. (Count)
system.cpu.MemDepUnit__0.conflictingLoads            0                       # Number of conflicting loads. (Count)
system.cpu.MemDepUnit__0.conflictingStores            0                       # Number of conflicting stores. (Count)
system.cpu.MemDepUnit__1.insertedLoads              0                       # Number of loads inserted to the mem dependence unit. (Count)
system.cpu.MemDepUnit__1.insertedStores             0                       # Number of stores inserted to the mem dependence unit. (Count)
system.cpu.MemDepUnit__1.conflictingLoads            0                       # Number of conflicting loads. (Count)
system.cpu.MemDepUnit__1.conflictingStores            0                       # Number of conflicting stores. (Count)
system.cpu.MemDepUnit__2.insertedLoads              0                       # Number of loads inserted to the mem dependence unit. (Count)
system.cpu.MemDepUnit__2.insertedStores             0                       # Number of stores inserted to the mem dependence unit. (Count)
system.cpu.MemDepUnit__2.conflictingLoads            0                       # Number of conflicting loads. (Count)
system.cpu.MemDepUnit__2.conflictingStores            0                       # Number of conflicting stores. (Count)
system.cpu.MemDepUnit__3.insertedLoads              0                       # Number of loads inserted to the mem dependence unit. (Count)
system.cpu.MemDepUnit__3.insertedStores             0                       # Number of stores inserted to the mem dependence unit. (Count)
system.cpu.MemDepUnit__3.conflictingLoads            0                       # Number of conflicting loads. (Count)
system.cpu.MemDepUnit__3.conflictingStores            0                       # Number of conflicting stores. (Count)
system.cpu.branchPred.lookups                 1048609                       # Number of BP lookups (Count)
system.cpu.branchPred.condPredicted           1048581                       # Number of conditional branches predicted (Count)
system.cpu.branchPred.condIncorrect                 5                       # Number of conditional branches incorrect (Count)
system.cpu.branchPred.BTBLookups              1048592                       # Number of BTB lookups (Count)
system.cpu.branchPred.BTBHits                 1048589                       # Number of BTB hits (Count)
system.cpu.branchPred.BTBHitRatio            0.999997                       # BTB Hit Ratio (Ratio)
system.cpu.branchPred.RASUsed                       1                       # Number of times the RAS was used to get a target. (Count)
system.cpu.branchPred.RASIncorrect                  0                       # Number of incorrect RAS predictions. (Count)
system.cpu.branchPred.indirectLookups              16                       # Number of indirect predictor lookups. (Count)
system.cpu.branchPred.indirectHits                  0                       # Number of indirect target hits. (Count)
system.cpu.branchPred.indirectMisses               16                       # Number of indirect misses. (Count)
system.cpu.branchPred.indirectMispredicted            1                       # Number of mispredicted indirect branches. (Count)
system.cpu.commit.commitSquashedInsts               3                       # The number of squashed insts skipped by commit (Count)
system.cpu.commit.commitNonSpecStalls               1                       # The number of times commit has been forced to stall to communicate backwards (Count)
system.cpu.commit.branchMispredicts                 3                       # The number of times a branch was mispredicted (Count)
system.cpu.commit.numCommittedDist::samples     12040008                       # Number of insts commited each cycle (Count)
system.cpu.commit.numCommittedDist::mean     0.696729                       # Number of insts commited each cycle (Count)
system.cpu.commit.numCommittedDist::stdev     2.255748                       # Number of insts commited each cycle (Count)
system.cpu.commit.numCommittedDist::underflows            0      0.00%      0.00% # Number of insts commited each cycle (Count)
system.cpu.commit.numCommittedDist::0        10991428     91.29%     91.29% # Number of insts commited each cycle (Count)
system.cpu.commit.numCommittedDist::1               1      0.00%     91.29% # Number of insts commited each cycle (Count)
system.cpu.commit.numCommittedDist::2               0      0.00%     91.29% # Number of insts commited each cycle (Count)
system.cpu.commit.numCommittedDist::3               1      0.00%     91.29% # Number of insts commited each cycle (Count)
system.cpu.commit.numCommittedDist::4               0      0.00%     91.29% # Number of insts commited each cycle (Count)
system.cpu.commit.numCommittedDist::5               1      0.00%     91.29% # Number of insts commited each cycle (Count)
system.cpu.commit.numCommittedDist::6               0      0.00%     91.29% # Number of insts commited each cycle (Count)
system.cpu.commit.numCommittedDist::7               0      0.00%     91.29% # Number of insts commited each cycle (Count)
system.cpu.commit.numCommittedDist::8         1048577      8.71%    100.00% # Number of insts commited each cycle (Count)
system.cpu.commit.numCommittedDist::overflows            0      0.00%    100.00% # Number of insts commited each cycle (Count)
system.cpu.commit.numCommittedDist::min_value            0                       # Number of insts commited each cycle (Count)
system.cpu.commit.numCommittedDist::max_value            8                       # Number of insts commited each cycle (Count)
system.cpu.commit.numCommittedDist::total     12040008                       # Number of insts commited each cycle (Count)
system.cpu.commit.instsCommitted              4194313                       # Number of instructions committed (Count)
system.cpu.commit.opsCommitted                8388625                       # Number of ops (including micro ops) committed (Count)
system.cpu.commit.memRefs                     1048578                       # Number of memory references committed (Count)
system.cpu.commit.loads                       1048577                       # Number of loads committed (Count)
system.cpu.commit.amos                              0                       # Number of atomic instructions committed (Count)
system.cpu.commit.membars                           0                       # Number of memory barriers committed (Count)
system.cpu.commit.branches                    1048579                       # Number of branches committed (Count)
system.cpu.commit.vectorInstructions                0                       # Number of committed Vector instructions. (Count)
system.cpu.commit.floating                          0                       # Number of committed floating point instructions. (Count)
system.cpu.commit.integer                     8388623                       # Number of committed integer instructions. (Count)
system.cpu.commit.functionCalls                     1                       # Number of function calls committed. (Count)
system.cpu.commit.committedInstType_0::No_OpClass            1      0.00%      0.00% # Class of committed instruction (Count)
system.cpu.commit.committedInstType_0::IntAlu      7340046     87.50%     87.50% # Class of committed instruction (Count)
system.cpu.commit.committedInstType_0::IntMult            0      0.00%     87.50% # Class of committed instruction (Count)
system.cpu.commit.committedInstType_0::IntDiv            0      0.00%     87.50% # Class of committed instruction (Count)
system.cpu.commit.committedInstType_0::FloatAdd            0      0.00%     87.50% # Class of committed instruction (Count)
system.cpu.commit.committedInstType_0::FloatCmp            0      0.00%     87.50% # Class of committed instruction (Count)
system.cpu.commit.committedInstType_0::FloatCvt            0      0.00%     87.50% # Class of committed instruction (Count)
system.cpu.commit.committedInstType_0::FloatMult            0      0.00%     87.50% # Class of committed instruction (Count)
system.cpu.commit.committedInstType_0::FloatMultAcc            0      0.00%     87.50% # Class of committed instruction (Count)
system.cpu.commit.committedInstType_0::FloatDiv            0      0.00%     87.50% # Class of committed instruction (Count)
system.cpu.commit.committedInstType_0::FloatMisc            0      0.00%     87.50% # Class of committed instruction (Count)
system.cpu.commit.committedInstType_0::FloatSqrt            0      0.00%     87.50% # Class of committed instruction (Count)
system.cpu.commit.committedInstType_0::SimdAdd            0      0.00%     87.50% # Class of committed instruction (Count)
system.cpu.commit.committedInstType_0::SimdAddAcc            0      0.00%     87.50% # Class of committed instruction (Count)
system.cpu.commit.committedInstType_0::SimdAlu            0      0.00%     87.50% # Class of committed instruction (Count)
system.cpu.commit.committedInstType_0::SimdCmp            0      0.00%     87.50% # Class of committed instruction (Count)
system.cpu.commit.committedInstType_0::SimdCvt            0      0.00%     87.50% # Class of committed instruction (Count)
system.cpu.commit.committedInstType_0::SimdMisc            0      0.00%     87.50% # Class of committed instruction (Count)
system.cpu.commit.committedInstType_0::SimdMult            0      0.00%     87.50% # Class of committed instruction (Count)
system.cpu.commit.committedInstType_0::SimdMultAcc            0      0.00%     87.50% # Class of committed instruction (Count)
system.cpu.commit.committedInstType_0::SimdShift            0      0.00%     87.50% # Class of committed instruction (Count)
system.cpu.commit.committedInstType_0::SimdShiftAcc            0      0.00%     87.50% # Class of committed instruction (Count)
system.cpu.commit.committedInstType_0::SimdDiv            0      0.00%     87.50% # Class of committed instruction (Count)
system.cpu.commit.committedInstType_0::SimdSqrt            0      0.00%     87.50% # Class of committed instruction (Count)
system.cpu.commit.committedInstType_0::SimdFloatAdd            0      0.00%     87.50% # Class of committed instruction (Count)
system.cpu.commit.committedInstType_0::SimdFloatAlu            0      0.00%     87.50% # Class of committed instruction (Count)
system.cpu.commit.committedInstType_0::SimdFloatCmp            0      0.00%     87.50% # Class of committed instruction (Count)
system.cpu.commit.committedInstType_0::SimdFloatCvt            0      0.00%     87.50% # Class of committed instruction (Count)
system.cpu.commit.committedInstType_0::SimdFloatDiv            0      0.00%     87.50% # Class of committed instruction (Count)
system.cpu.commit.committedInstType_0::SimdFloatMisc            0      0.00%     87.50% # Class of committed instruction (Count)
system.cpu.commit.committedInstType_0::SimdFloatMult            0      0.00%     87.50% # Class of committed instruction (Count)
system.cpu.commit.committedInstType_0::SimdFloatMultAcc            0      0.00%     87.50% # Class of committed instruction (Count)
system.cpu.commit.committedInstType_0::SimdFloatSqrt            0      0.00%     87.50% # Class of committed instruction (Count)
system.cpu.commit.committedInstType_0::SimdReduceAdd            0      0.00%     87.50% # Class of committed instruction (Count)
system.cpu.commit.committedInstType_0::SimdReduceAlu            0      0.00%     87.50% # Class of committed instruction (Count)
system.cpu.commit.committedInstType_0::SimdReduceCmp            0      0.00%     87.50% # Class of committed instruction (Count)
system.cpu.commit.committedInstType_0::SimdFloatReduceAdd            0      0.00%     87.50% # Class of committed instruction (Count)
system.cpu.commit.committedInstType_0::SimdFloatReduceCmp            0      0.00%     87.50% # Class of committed instruction (Count)
system.cpu.commit.committedInstType_0::SimdAes            0      0.00%     87.50% # Class of committed instruction (Count)
system.cpu.commit.committedInstType_0::SimdAesMix            0      0.00%     87.50% # Class of committed instruction (Count)
system.cpu.commit.committedInstType_0::SimdSha1Hash            0      0.00%     87.50% # Class of committed instruction (Count)
system.cpu.commit.committedInstType_0::SimdSha1Hash2            0      0.00%     87.50% # Class of committed instruction (Count)
system.cpu.commit.committedInstType_0::SimdSha256Hash            0      0.00%     87.50% # Class of committed instruction (Count)
system.cpu.commit.committedInstType_0::SimdSha256Hash2            0      0.00%     87.50% # Class of committed instruction (Count)
system.cpu.commit.committedInstType_0::SimdShaSigma2            0      0.00%     87.50% # Class of committed instruction (Count)
system.cpu.commit.committedInstType_0::SimdShaSigma3            0      0.00%     87.50% # Class of committed instruction (Count)
system.cpu.commit.committedInstType_0::SimdPredAlu            0      0.00%     87.50% # Class of committed instruction (Count)
system.cpu.commit.committedInstType_0::MemRead      1048577     12.50%    100.00% # Class of committed instruction (Count)
system.cpu.commit.committedInstType_0::MemWrite            1      0.00%    100.00% # Class of committed instruction (Count)
system.cpu.commit.committedInstType_0::FloatMemRead            0      0.00%    100.00% # Class of committed instruction (Count)
system.cpu.commit.committedInstType_0::FloatMemWrite            0      0.00%    100.00% # Class of committed instruction (Count)
system.cpu.commit.committedInstType_0::IprAccess            0      0.00%    100.00% # Class of committed instruction (Count)
system.cpu.commit.committedInstType_0::InstPrefetch            0      0.00%    100.00% # Class of committed instruction (Count)
system.cpu.commit.committedInstType_0::total      8388625                       # Class of committed instruction (Count)
system.cpu.commit.commitEligibleSamples       1048577                       # number cycles where commit BW limit reached (Cycle)
system.cpu.decode.idleCycles                   349796                       # Number of cycles decode is idle (Cycle)
system.cpu.decode.blockedCycles              10641620                       # Number of cycles decode is blocked (Cycle)
system.cpu.decode.runCycles                        51                       # Number of cycles decode is running (Cycle)
system.cpu.decode.unblockCycles               1048554                       # Number of cycles decode is unblocking (Cycle)
[...]
system.mem_ctrl.rdPerTurnAround::17               102      0.16%     99.97% # Reads before turning the bus around for writes (Count)
system.mem_ctrl.rdPerTurnAround::18                13      0.02%     99.99% # Reads before turning the bus around for writes (Count)
system.mem_ctrl.rdPerTurnAround::19                 2      0.00%     99.99% # Reads before turning the bus around for writes (Count)
system.mem_ctrl.rdPerTurnAround::20                 2      0.00%    100.00% # Reads before turning the bus around for writes (Count)
system.mem_ctrl.rdPerTurnAround::21                 1      0.00%    100.00% # Reads before turning the bus around for writes (Count)
system.mem_ctrl.rdPerTurnAround::22                 1      0.00%    100.00% # Reads before turning the bus around for writes (Count)
system.mem_ctrl.rdPerTurnAround::24                 1      0.00%    100.00% # Reads before turning the bus around for writes (Count)
system.mem_ctrl.rdPerTurnAround::total          65777                       # Reads before turning the bus around for writes (Count)
system.mem_ctrl.wrPerTurnAround::samples        65777                       # Writes before turning the bus around for reads (Count)
system.mem_ctrl.wrPerTurnAround::mean       16.001703                       # Writes before turning the bus around for reads (Count)
system.mem_ctrl.wrPerTurnAround::gmean      16.001633                       # Writes before turning the bus around for reads (Count)
system.mem_ctrl.wrPerTurnAround::stdev       0.049291                       # Writes before turning the bus around for reads (Count)
system.mem_ctrl.wrPerTurnAround::16             65679     99.85%     99.85% # Writes before turning the bus around for reads (Count)
system.mem_ctrl.wrPerTurnAround::17                91      0.14%     99.99% # Writes before turning the bus around for reads (Count)
system.mem_ctrl.wrPerTurnAround::18                 2      0.00%     99.99% # Writes before turning the bus around for reads (Count)
system.mem_ctrl.wrPerTurnAround::19                 4      0.01%    100.00% # Writes before turning the bus around for reads (Count)
system.mem_ctrl.wrPerTurnAround::21                 1      0.00%    100.00% # Writes before turning the bus around for reads (Count)
system.mem_ctrl.wrPerTurnAround::total          65777                       # Writes before turning the bus around for reads (Count)
system.mem_ctrl.bytesReadWrQ                    56384                       # Total number of bytes read from write queue (Byte)
system.mem_ctrl.bytesReadSys                 67388032                       # Total read bytes from the system interface side (Byte)
system.mem_ctrl.bytesWrittenSys              67388032                       # Total written bytes from the system interface side (Byte)
system.mem_ctrl.avgRdBWSys               937747500.06943905                       # Average system read bandwidth in Byte/s ((Byte/Second))
system.mem_ctrl.avgWrBWSys               937747500.06943905                       # Average system write bandwidth in Byte/s ((Byte/Second))
system.mem_ctrl.totGap                    71861519000                       # Total gap between requests (Tick)
system.mem_ctrl.avgGap                       34124.29                       # Average gap between requests ((Tick/Count))
system.mem_ctrl.requestorReadBytes::caches.controllers1     67331648                       # Per-requestor bytes read from memory (Byte)
system.mem_ctrl.requestorWriteBytes::caches.controllers1     67362816                       # Per-requestor bytes write to memory (Byte)
system.mem_ctrl.requestorReadRate::caches.controllers1 936962880.701953768730                       # Per-requestor bytes read from memory rate ((Byte/Second))
system.mem_ctrl.requestorWriteRate::caches.controllers1 937396603.326205015182                       # Per-requestor bytes write to memory rate ((Byte/Second))
system.mem_ctrl.requestorReadAccesses::caches.controllers1      1052938                       # Per-requestor read serviced memory accesses (Count)
system.mem_ctrl.requestorWriteAccesses::caches.controllers1      1052938                       # Per-requestor write serviced memory accesses (Count)
system.mem_ctrl.requestorReadTotalLat::caches.controllers1  29633177750                       # Per-requestor read total memory access latency (Tick)
system.mem_ctrl.requestorWriteTotalLat::caches.controllers1 1778696053750                       # Per-requestor write total memory access latency (Tick)
system.mem_ctrl.requestorReadAvgLat::caches.controllers1     28143.33                       # Per-requestor read average memory access latency ((Tick/Count))
system.mem_ctrl.requestorWriteAvgLat::caches.controllers1   1689269.50                       # Per-requestor write average memory access latency ((Tick/Count))
system.mem_ctrl.dram.bytesRead::caches.controllers1     67387968                       # Number of bytes read from this memory (Byte)
system.mem_ctrl.dram.bytesRead::total        67387968                       # Number of bytes read from this memory (Byte)
system.mem_ctrl.dram.bytesWritten::caches.controllers1     67388032                       # Number of bytes written to this memory (Byte)
system.mem_ctrl.dram.bytesWritten::total     67388032                       # Number of bytes written to this memory (Byte)
system.mem_ctrl.dram.numReads::caches.controllers1      1052937                       # Number of read requests responded to by this memory (Count)
system.mem_ctrl.dram.numReads::total          1052937                       # Number of read requests responded to by this memory (Count)
system.mem_ctrl.dram.numWrites::caches.controllers1      1052938                       # Number of write requests responded to by this memory (Count)
system.mem_ctrl.dram.numWrites::total         1052938                       # Number of write requests responded to by this memory (Count)
system.mem_ctrl.dram.bwRead::caches.controllers1    937746609                       # Total read bandwidth from this memory ((Byte/Second))
system.mem_ctrl.dram.bwRead::total          937746609                       # Total read bandwidth from this memory ((Byte/Second))
system.mem_ctrl.dram.bwWrite::caches.controllers1    937747500                       # Write bandwidth from this memory ((Byte/Second))
system.mem_ctrl.dram.bwWrite::total         937747500                       # Write bandwidth from this memory ((Byte/Second))
system.mem_ctrl.dram.bwTotal::caches.controllers1   1875494110                       # Total bandwidth to/from this memory ((Byte/Second))
system.mem_ctrl.dram.bwTotal::total        1875494110                       # Total bandwidth to/from this memory ((Byte/Second))
system.mem_ctrl.dram.readBursts               1052057                       # Number of DRAM read bursts (Count)
system.mem_ctrl.dram.writeBursts              1052544                       # Number of DRAM write bursts (Count)
system.mem_ctrl.dram.perBankRdBursts::0         66234                       # Per bank write bursts (Count)
system.mem_ctrl.dram.perBankRdBursts::1         65840                       # Per bank write bursts (Count)
system.mem_ctrl.dram.perBankRdBursts::2         65605                       # Per bank write bursts (Count)
system.mem_ctrl.dram.perBankRdBursts::3         65719                       # Per bank write bursts (Count)
system.mem_ctrl.dram.perBankRdBursts::4         65750                       # Per bank write bursts (Count)
system.mem_ctrl.dram.perBankRdBursts::5         65805                       # Per bank write bursts (Count)
system.mem_ctrl.dram.perBankRdBursts::6         65845                       # Per bank write bursts (Count)
system.mem_ctrl.dram.perBankRdBursts::7         65635                       # Per bank write bursts (Count)
system.mem_ctrl.dram.perBankRdBursts::8         65744                       # Per bank write bursts (Count)
system.mem_ctrl.dram.perBankRdBursts::9         65728                       # Per bank write bursts (Count)
system.mem_ctrl.dram.perBankRdBursts::10        65752                       # Per bank write bursts (Count)
system.mem_ctrl.dram.perBankRdBursts::11        65685                       # Per bank write bursts (Count)
system.mem_ctrl.dram.perBankRdBursts::12        65620                       # Per bank write bursts (Count)
system.mem_ctrl.dram.perBankRdBursts::13        65650                       # Per bank write bursts (Count)
system.mem_ctrl.dram.perBankRdBursts::14        65663                       # Per bank write bursts (Count)
system.mem_ctrl.dram.perBankRdBursts::15        65782                       # Per bank write bursts (Count)
system.mem_ctrl.dram.perBankWrBursts::0         66331                       # Per bank write bursts (Count)
system.mem_ctrl.dram.perBankWrBursts::1         65893                       # Per bank write bursts (Count)
system.mem_ctrl.dram.perBankWrBursts::2         65607                       # Per bank write bursts (Count)
system.mem_ctrl.dram.perBankWrBursts::3         65746                       # Per bank write bursts (Count)
system.mem_ctrl.dram.perBankWrBursts::4         65791                       # Per bank write bursts (Count)
system.mem_ctrl.dram.perBankWrBursts::5         65841                       # Per bank write bursts (Count)
system.mem_ctrl.dram.perBankWrBursts::6         65938                       # Per bank write bursts (Count)
system.mem_ctrl.dram.perBankWrBursts::7         65662                       # Per bank write bursts (Count)
system.mem_ctrl.dram.perBankWrBursts::8         65757                       # Per bank write bursts (Count)
system.mem_ctrl.dram.perBankWrBursts::9         65750                       # Per bank write bursts (Count)
system.mem_ctrl.dram.perBankWrBursts::10        65773                       # Per bank write bursts (Count)
system.mem_ctrl.dram.perBankWrBursts::11        65680                       # Per bank write bursts (Count)
system.mem_ctrl.dram.perBankWrBursts::12        65636                       # Per bank write bursts (Count)
system.mem_ctrl.dram.perBankWrBursts::13        65662                       # Per bank write bursts (Count)
system.mem_ctrl.dram.perBankWrBursts::14        65675                       # Per bank write bursts (Count)
system.mem_ctrl.dram.perBankWrBursts::15        65802                       # Per bank write bursts (Count)
system.mem_ctrl.dram.totQLat               9907109000                       # Total ticks spent queuing (Tick)
system.mem_ctrl.dram.totBusLat             5260285000                       # Total ticks spent in databus transfers (Tick)
system.mem_ctrl.dram.totMemAccLat         29633177750                       # Total ticks spent from burst creation until serviced by the DRAM (Tick)
system.mem_ctrl.dram.avgQLat                  9416.89                       # Average queueing delay per DRAM burst ((Tick/Count))
system.mem_ctrl.dram.avgBusLat                5000.00                       # Average bus latency per DRAM burst ((Tick/Count))
system.mem_ctrl.dram.avgMemAccLat            28166.89                       # Average memory access latency per DRAM burst ((Tick/Count))
system.mem_ctrl.dram.readRowHits               973622                       # Number of row buffer hits during reads (Count)
system.mem_ctrl.dram.writeRowHits              980192                       # Number of row buffer hits during writes (Count)
system.mem_ctrl.dram.readRowHitRate             92.54                       # Row buffer hit rate for reads (Ratio)
system.mem_ctrl.dram.writeRowHitRate            93.13                       # Row buffer hit rate for writes (Ratio)
system.mem_ctrl.dram.bytesPerActivate::samples       150780                       # Bytes accessed per row activation (Byte)
system.mem_ctrl.dram.bytesPerActivate::mean   893.301711                       # Bytes accessed per row activation (Byte)
system.mem_ctrl.dram.bytesPerActivate::gmean   777.664503                       # Bytes accessed per row activation (Byte)
system.mem_ctrl.dram.bytesPerActivate::stdev   283.465772                       # Bytes accessed per row activation (Byte)
system.mem_ctrl.dram.bytesPerActivate::0-127         7516      4.98%      4.98% # Bytes accessed per row activation (Byte)
system.mem_ctrl.dram.bytesPerActivate::128-255         3726      2.47%      7.46% # Bytes accessed per row activation (Byte)
system.mem_ctrl.dram.bytesPerActivate::256-383         3344      2.22%      9.67% # Bytes accessed per row activation (Byte)
system.mem_ctrl.dram.bytesPerActivate::384-511         3502      2.32%     12.00% # Bytes accessed per row activation (Byte)
system.mem_ctrl.dram.bytesPerActivate::512-639         4151      2.75%     14.75% # Bytes accessed per row activation (Byte)
system.mem_ctrl.dram.bytesPerActivate::640-767         2773      1.84%     16.59% # Bytes accessed per row activation (Byte)
system.mem_ctrl.dram.bytesPerActivate::768-895         2915      1.93%     18.52% # Bytes accessed per row activation (Byte)
system.mem_ctrl.dram.bytesPerActivate::896-1023         9263      6.14%     24.67% # Bytes accessed per row activation (Byte)
system.mem_ctrl.dram.bytesPerActivate::1024-1151       113590     75.33%    100.00% # Bytes accessed per row activation (Byte)
system.mem_ctrl.dram.bytesPerActivate::total       150780                       # Bytes accessed per row activation (Byte)
system.mem_ctrl.dram.bytesRead               67331648                       # Total number of bytes read from DRAM (Byte)
system.mem_ctrl.dram.bytesWritten            67362816                       # Total number of bytes written to DRAM (Byte)
system.mem_ctrl.dram.avgRdBW               936.962881                       # Average DRAM read bandwidth in MiBytes/s ((Byte/Second))
system.mem_ctrl.dram.avgWrBW               937.396603                       # Average DRAM write bandwidth in MiBytes/s ((Byte/Second))
system.mem_ctrl.dram.peakBW                  12800.00                       # Theoretical peak bandwidth in MiByte/s ((Byte/Second))
system.mem_ctrl.dram.busUtil                    14.64                       # Data bus utilization in percentage (Ratio)
system.mem_ctrl.dram.busUtilRead                 7.32                       # Data bus utilization in percentage for reads (Ratio)
system.mem_ctrl.dram.busUtilWrite                7.32                       # Data bus utilization in percentage for writes (Ratio)
system.mem_ctrl.dram.pageHitRate                92.84                       # Row buffer hit rate, read and write combined (Ratio)
system.mem_ctrl.dram.power_state.pwrStateResidencyTicks::UNDEFINED 107410811000                       # Cumulative time (in ticks) in various power states (Tick)
system.mem_ctrl.dram.rank0.actEnergy        540997800                       # Energy for activate commands per rank (pJ) (Joule)
system.mem_ctrl.dram.rank0.preEnergy        287524380                       # Energy for precharge commands per rank (pJ) (Joule)
system.mem_ctrl.dram.rank0.readEnergy      3758810160                       # Energy for read commands per rank (pJ) (Joule)
system.mem_ctrl.dram.rank0.writeEnergy     2750021280                       # Energy for write commands per rank (pJ) (Joule)
system.mem_ctrl.dram.rank0.refreshEnergy 5672512560.000001                       # Energy for refresh commands per rank (pJ) (Joule)
system.mem_ctrl.dram.rank0.actBackEnergy  27247552110                       # Energy for active background per rank (pJ) (Joule)
system.mem_ctrl.dram.rank0.preBackEnergy   4649872800                       # Energy for precharge background per rank (pJ) (Joule)
system.mem_ctrl.dram.rank0.actPowerDownEnergy            0                       # Energy for active power-down per rank (pJ) (Joule)
system.mem_ctrl.dram.rank0.prePowerDownEnergy            0                       # Energy for precharge power-down per rank (pJ) (Joule)
system.mem_ctrl.dram.rank0.selfRefreshEnergy            0                       # Energy for self refresh per rank (pJ) (Joule)
system.mem_ctrl.dram.rank0.totalEnergy    44907291090                       # Total energy per rank (pJ) (Joule)
system.mem_ctrl.dram.rank0.averagePower    624.913634                       # Core power per rank (mW) (Watt)
system.mem_ctrl.dram.rank0.totalIdleTime            0                       # Total Idle time Per DRAM Rank (Tick)
system.mem_ctrl.dram.rank0.pwrStateTime::IDLE  11755690500                       # Time in different power states (Tick)
system.mem_ctrl.dram.rank0.pwrStateTime::REF   2399540000                       # Time in different power states (Tick)
system.mem_ctrl.dram.rank0.pwrStateTime::SREF            0                       # Time in different power states (Tick)
system.mem_ctrl.dram.rank0.pwrStateTime::PRE_PDN            0                       # Time in different power states (Tick)
system.mem_ctrl.dram.rank0.pwrStateTime::ACT  57707216000                       # Time in different power states (Tick)
system.mem_ctrl.dram.rank0.pwrStateTime::ACT_PDN            0                       # Time in different power states (Tick)
system.mem_ctrl.dram.rank1.actEnergy        535664220                       # Energy for activate commands per rank (pJ) (Joule)
system.mem_ctrl.dram.rank1.preEnergy        284693310                       # Energy for precharge commands per rank (pJ) (Joule)
system.mem_ctrl.dram.rank1.readEnergy      3752955360                       # Energy for read commands per rank (pJ) (Joule)
system.mem_ctrl.dram.rank1.writeEnergy     2744341920                       # Energy for write commands per rank (pJ) (Joule)
system.mem_ctrl.dram.rank1.refreshEnergy 5672512560.000001                       # Energy for refresh commands per rank (pJ) (Joule)
system.mem_ctrl.dram.rank1.actBackEnergy  27659198130                       # Energy for active background per rank (pJ) (Joule)
system.mem_ctrl.dram.rank1.preBackEnergy   4303023360                       # Energy for precharge background per rank (pJ) (Joule)
system.mem_ctrl.dram.rank1.actPowerDownEnergy            0                       # Energy for active power-down per rank (pJ) (Joule)
system.mem_ctrl.dram.rank1.prePowerDownEnergy            0                       # Energy for precharge power-down per rank (pJ) (Joule)
system.mem_ctrl.dram.rank1.selfRefreshEnergy            0                       # Energy for self refresh per rank (pJ) (Joule)
system.mem_ctrl.dram.rank1.totalEnergy    44952388860                       # Total energy per rank (pJ) (Joule)
system.mem_ctrl.dram.rank1.averagePower    625.541198                       # Core power per rank (mW) (Watt)
system.mem_ctrl.dram.rank1.totalIdleTime            0                       # Total Idle time Per DRAM Rank (Tick)
system.mem_ctrl.dram.rank1.pwrStateTime::IDLE  10849255000                       # Time in different power states (Tick)
system.mem_ctrl.dram.rank1.pwrStateTime::REF   2399540000                       # Time in different power states (Tick)
system.mem_ctrl.dram.rank1.pwrStateTime::SREF            0                       # Time in different power states (Tick)
system.mem_ctrl.dram.rank1.pwrStateTime::PRE_PDN            0                       # Time in different power states (Tick)
system.mem_ctrl.dram.rank1.pwrStateTime::ACT  58613130500                       # Time in different power states (Tick)
system.mem_ctrl.dram.rank1.pwrStateTime::ACT_PDN            0                       # Time in different power states (Tick)
system.mem_ctrl.power_state.pwrStateResidencyTicks::UNDEFINED 107410811000                       # Cumulative time (in ticks) in various power states (Tick)
system.workload.inst.arm                            0                       # number of arm instructions executed (Count)
system.workload.inst.quiesce                        0                       # number of quiesce instructions executed (Count)

---------- End Simulation Statistics   ----------
