
---------- Begin Simulation Statistics ----------
simSeconds                                   0.511122                       # Number of seconds simulated (Second)
simTicks                                 511122476000                       # Number of ticks simulated (Tick)
finalTick                                511122476000                       # Number of ticks from beginning of simulation (restored from checkpoints and never reset) (Tick)
simFreq                                  1000000000000                       # The number of ticks per simulated second ((Tick/Second))
hostSeconds                                    897.14                       # Real time elapsed on the host (Second)
hostTickRate                                569724669                       # The number of ticks simulated per host second (ticks/s) ((Tick/Second))
hostMemory                                    9639676                       # Number of bytes of host memory used (Byte)
simInsts                                     46698355                       # Number of instructions simulated (Count)
simOps                                       83201955                       # Number of ops (including micro ops) simulated (Count)
hostInstRate                                    52052                       # Simulator instruction rate (inst/s) ((Count/Second))
hostOpRate                                      92741                       # Simulator op (including micro ops) rate (op/s) ((Count/Second))
system.caches.delayHistogram::bucket_size            4                       # delay histogram for all message (Unspecified)
system.caches.delayHistogram::max_bucket           39                       # delay histogram for all message (Unspecified)
system.caches.delayHistogram::samples        44702992                       # delay histogram for all message (Unspecified)
system.caches.delayHistogram::mean           0.678249                       # delay histogram for all message (Unspecified)
system.caches.delayHistogram::stdev          1.873040                       # delay histogram for all message (Unspecified)
system.caches.delayHistogram             |    39861113     89.17%     89.17% |     4806663     10.75%     99.92% |       27164      0.06%     99.98% |         218      0.00%     99.98% |        5119      0.01%     99.99% |         225      0.00%     99.99% |        2246      0.01%    100.00% |         202      0.00%    100.00% |          13      0.00%    100.00% |          29      0.00%    100.00% # delay histogram for all message (Unspecified)
system.caches.delayHistogram::total          44702992                       # delay histogram for all message (Unspecified)
system.caches.m_outstandReqHistSeqr::bucket_size            2                       (Unspecified)
system.caches.m_outstandReqHistSeqr::max_bucket           19                       (Unspecified)
system.caches.m_outstandReqHistSeqr::samples     44545897                       (Unspecified)
system.caches.m_outstandReqHistSeqr::mean     2.369174                       (Unspecified)
system.caches.m_outstandReqHistSeqr::gmean     2.053103                       (Unspecified)
system.caches.m_outstandReqHistSeqr::stdev     1.399236                       (Unspecified)
system.caches.m_outstandReqHistSeqr      |    10841782     24.34%     24.34% |    26058509     58.50%     82.84% |     5470169     12.28%     95.12% |     1948506      4.37%     99.49% |      113001      0.25%     99.74% |      103032      0.23%     99.98% |        8331      0.02%     99.99% |        1406      0.00%    100.00% |        1161      0.00%    100.00% |           0      0.00%    100.00% (Unspecified)
system.caches.m_outstandReqHistSeqr::total     44545897                       (Unspecified)
system.caches.m_latencyHistSeqr::bucket_size          128                       (Unspecified)
system.caches.m_latencyHistSeqr::max_bucket         1279                       (Unspecified)
system.caches.m_latencyHistSeqr::samples     45651232                       (Unspecified)
system.caches.m_latencyHistSeqr::mean       20.986954                       (Unspecified)
system.caches.m_latencyHistSeqr::gmean       6.778064                       (Unspecified)
system.caches.m_latencyHistSeqr::stdev      23.394060                       (Unspecified)
system.caches.m_latencyHistSeqr          |    45504657     99.68%     99.68% |      128543      0.28%     99.96% |       16018      0.04%    100.00% |        1854      0.00%    100.00% |         158      0.00%    100.00% |           2      0.00%    100.00% |           0      0.00%    100.00% |           0      0.00%    100.00% |           0      0.00%    100.00% |           0      0.00%    100.00% (Unspecified)
system.caches.m_latencyHistSeqr::total       45651232                       (Unspecified)
system.caches.m_hitLatencyHistSeqr::bucket_size           64                       (Unspecified)
system.caches.m_hitLatencyHistSeqr::max_bucket          639                       (Unspecified)
system.caches.m_hitLatencyHistSeqr::samples     23299720                       (Unspecified)
system.caches.m_hitLatencyHistSeqr::mean     2.842261                       (Unspecified)
system.caches.m_hitLatencyHistSeqr::gmean     1.323069                       (Unspecified)
system.caches.m_hitLatencyHistSeqr::stdev     6.974617                       (Unspecified)
system.caches.m_hitLatencyHistSeqr       |    23282610     99.93%     99.93% |       12547      0.05%     99.98% |        2853      0.01%     99.99% |         858      0.00%    100.00% |         654      0.00%    100.00% |         162      0.00%    100.00% |          23      0.00%    100.00% |          11      0.00%    100.00% |           2      0.00%    100.00% |           0      0.00%    100.00% (Unspecified)
system.caches.m_hitLatencyHistSeqr::total     23299720                       (Unspecified)
system.caches.m_missLatencyHistSeqr::bucket_size          128                       (Unspecified)
system.caches.m_missLatencyHistSeqr::max_bucket         1279                       (Unspecified)
system.caches.m_missLatencyHistSeqr::samples     22351512                       (Unspecified)
system.caches.m_missLatencyHistSeqr::mean    39.901392                       (Unspecified)
system.caches.m_missLatencyHistSeqr::gmean    37.215894                       (Unspecified)
system.caches.m_missLatencyHistSeqr::stdev    19.134253                       (Unspecified)
system.caches.m_missLatencyHistSeqr      |    22209500     99.36%     99.36% |      124832      0.56%     99.92% |       15202      0.07%     99.99% |        1820      0.01%    100.00% |         156      0.00%    100.00% |           2      0.00%    100.00% |           0      0.00%    100.00% |           0      0.00%    100.00% |           0      0.00%    100.00% |           0      0.00%    100.00% (Unspecified)
system.caches.m_missLatencyHistSeqr::total     22351512                       (Unspecified)
system.caches.delayVCHist.vnet_1::bucket_size            2                       # delay histogram for vnet_1 (Unspecified)
system.caches.delayVCHist.vnet_1::max_bucket           19                       # delay histogram for vnet_1 (Unspecified)
system.caches.delayVCHist.vnet_1::samples     22351512                       # delay histogram for vnet_1 (Unspecified)
system.caches.delayVCHist.vnet_1::mean       0.014682                       # delay histogram for vnet_1 (Unspecified)
system.caches.delayVCHist.vnet_1::stdev      0.308851                       # delay histogram for vnet_1 (Unspecified)
system.caches.delayVCHist.vnet_1         |    22288101     99.72%     99.72% |       22778      0.10%     99.82% |        4687      0.02%     99.84% |       12090      0.05%     99.89% |       23634      0.11%    100.00% |         204      0.00%    100.00% |          18      0.00%    100.00% |           0      0.00%    100.00% |           0      0.00%    100.00% |           0      0.00%    100.00% # delay histogram for vnet_1 (Unspecified)
system.caches.delayVCHist.vnet_1::total      22351512                       # delay histogram for vnet_1 (Unspecified)
system.caches.delayVCHist.vnet_2::bucket_size            4                       # delay histogram for vnet_2 (Unspecified)
system.caches.delayVCHist.vnet_2::max_bucket           39                       # delay histogram for vnet_2 (Unspecified)
system.caches.delayVCHist.vnet_2::samples     22351480                       # delay histogram for vnet_2 (Unspecified)
system.caches.delayVCHist.vnet_2::mean       1.341818                       # delay histogram for vnet_2 (Unspecified)
system.caches.delayVCHist.vnet_2::stdev      2.457749                       # delay histogram for vnet_2 (Unspecified)
system.caches.delayVCHist.vnet_2         |    17550234     78.52%     78.52% |     4789886     21.43%     99.95% |        3326      0.01%     99.96% |         200      0.00%     99.96% |        5119      0.02%     99.99% |         225      0.00%     99.99% |        2246      0.01%    100.00% |         202      0.00%    100.00% |          13      0.00%    100.00% |          29      0.00%    100.00% # delay histogram for vnet_2 (Unspecified)
system.caches.delayVCHist.vnet_2::total      22351480                       # delay histogram for vnet_2 (Unspecified)
system.caches.L1Cache_Controller.Load        12128604      0.00%      0.00% (Unspecified)
system.caches.L1Cache_Controller.Ifetch      21554997      0.00%      0.00% (Unspecified)
system.caches.L1Cache_Controller.Store       11967632      0.00%      0.00% (Unspecified)
system.caches.L1Cache_Controller.Data        22351512      0.00%      0.00% (Unspecified)
system.caches.L1Cache_Controller.Replacement     22351481      0.00%      0.00% (Unspecified)
system.caches.L1Cache_Controller.Writeback_Ack     22351480      0.00%      0.00% (Unspecified)
system.caches.L1Cache_Controller.I.Load       7586968      0.00%      0.00% (Unspecified)
system.caches.L1Cache_Controller.I.Ifetch     11525091      0.00%      0.00% (Unspecified)
system.caches.L1Cache_Controller.I.Store      3239454      0.00%      0.00% (Unspecified)
system.caches.L1Cache_Controller.M.Load       4541636      0.00%      0.00% (Unspecified)
system.caches.L1Cache_Controller.M.Ifetch     10029906      0.00%      0.00% (Unspecified)
system.caches.L1Cache_Controller.M.Store      8728178      0.00%      0.00% (Unspecified)
system.caches.L1Cache_Controller.M.Replacement     22351481      0.00%      0.00% (Unspecified)
system.caches.L1Cache_Controller.MI.Writeback_Ack     22351480      0.00%      0.00% (Unspecified)
system.caches.L1Cache_Controller.IS.Data     19112058      0.00%      0.00% (Unspecified)
system.caches.L1Cache_Controller.IM.Data      3239454      0.00%      0.00% (Unspecified)
system.caches.Directory_Controller.GETX      22351512      0.00%      0.00% (Unspecified)
system.caches.Directory_Controller.PUTX      22351481      0.00%      0.00% (Unspecified)
system.caches.Directory_Controller.Memory_Data     22351512      0.00%      0.00% (Unspecified)
system.caches.Directory_Controller.Memory_Ack     22351480      0.00%      0.00% (Unspecified)
system.caches.Directory_Controller.I.GETX     22351512      0.00%      0.00% (Unspecified)
system.caches.Directory_Controller.M.PUTX     22351481      0.00%      0.00% (Unspecified)
system.caches.Directory_Controller.IM.Memory_Data     22351512      0.00%      0.00% (Unspecified)
system.caches.Directory_Controller.MI.Memory_Ack     22351480      0.00%      0.00% (Unspecified)
system.caches.MachineType.Directory.miss_mach_latency_hist_seqr::bucket_size          128                       (Unspecified)
system.caches.MachineType.Directory.miss_mach_latency_hist_seqr::max_bucket         1279                       (Unspecified)
system.caches.MachineType.Directory.miss_mach_latency_hist_seqr::samples     22351512                       (Unspecified)
system.caches.MachineType.Directory.miss_mach_latency_hist_seqr::mean    39.901392                       (Unspecified)
system.caches.MachineType.Directory.miss_mach_latency_hist_seqr::gmean    37.215894                       (Unspecified)
system.caches.MachineType.Directory.miss_mach_latency_hist_seqr::stdev    19.134253                       (Unspecified)
system.caches.MachineType.Directory.miss_mach_latency_hist_seqr |    22209500     99.36%     99.36% |      124832      0.56%     99.92% |       15202      0.07%     99.99% |        1820      0.01%    100.00% |         156      0.00%    100.00% |           2      0.00%    100.00% |           0      0.00%    100.00% |           0      0.00%    100.00% |           0      0.00%    100.00% |           0      0.00%    100.00% (Unspecified)
system.caches.MachineType.Directory.miss_mach_latency_hist_seqr::total     22351512                       (Unspecified)
system.caches.MachineType.Directory.miss_latency_hist_seqr.issue_to_initial_request::bucket_size            1                       (Unspecified)
system.caches.MachineType.Directory.miss_latency_hist_seqr.issue_to_initial_request::max_bucket            9                       (Unspecified)
system.caches.MachineType.Directory.miss_latency_hist_seqr.issue_to_initial_request::samples            1                       (Unspecified)
system.caches.MachineType.Directory.miss_latency_hist_seqr.issue_to_initial_request::stdev          nan                       (Unspecified)
system.caches.MachineType.Directory.miss_latency_hist_seqr.issue_to_initial_request |           1    100.00%    100.00% |           0      0.00%    100.00% |           0      0.00%    100.00% |           0      0.00%    100.00% |           0      0.00%    100.00% |           0      0.00%    100.00% |           0      0.00%    100.00% |           0      0.00%    100.00% |           0      0.00%    100.00% |           0      0.00%    100.00% (Unspecified)
system.caches.MachineType.Directory.miss_latency_hist_seqr.issue_to_initial_request::total            1                       (Unspecified)
system.caches.MachineType.Directory.miss_latency_hist_seqr.initial_to_forward::bucket_size            1                       (Unspecified)
system.caches.MachineType.Directory.miss_latency_hist_seqr.initial_to_forward::max_bucket            9                       (Unspecified)
system.caches.MachineType.Directory.miss_latency_hist_seqr.initial_to_forward::samples            1                       (Unspecified)
system.caches.MachineType.Directory.miss_latency_hist_seqr.initial_to_forward::stdev          nan                       (Unspecified)
system.caches.MachineType.Directory.miss_latency_hist_seqr.initial_to_forward |           1    100.00%    100.00% |           0      0.00%    100.00% |           0      0.00%    100.00% |           0      0.00%    100.00% |           0      0.00%    100.00% |           0      0.00%    100.00% |           0      0.00%    100.00% |           0      0.00%    100.00% |           0      0.00%    100.00% |           0      0.00%    100.00% (Unspecified)
system.caches.MachineType.Directory.miss_latency_hist_seqr.initial_to_forward::total            1                       (Unspecified)
system.caches.MachineType.Directory.miss_latency_hist_seqr.forward_to_first_response::bucket_size            1                       (Unspecified)
system.caches.MachineType.Directory.miss_latency_hist_seqr.forward_to_first_response::max_bucket            9                       (Unspecified)
system.caches.MachineType.Directory.miss_latency_hist_seqr.forward_to_first_response::samples            1                       (Unspecified)
system.caches.MachineType.Directory.miss_latency_hist_seqr.forward_to_first_response::stdev          nan                       (Unspecified)
system.caches.MachineType.Directory.miss_latency_hist_seqr.forward_to_first_response |           1    100.00%    100.00% |           0      0.00%    100.00% |           0      0.00%    100.00% |           0      0.00%    100.00% |           0      0.00%    100.00% |           0      0.00%    100.00% |           0      0.00%    100.00% |           0      0.00%    100.00% |           0      0.00%    100.00% |           0      0.00%    100.00% (Unspecified)
system.caches.MachineType.Directory.miss_latency_hist_seqr.forward_to_first_response::total            1                       (Unspecified)
system.caches.MachineType.Directory.miss_latency_hist_seqr.first_response_to_completion::bucket_size            8                       (Unspecified)
system.caches.MachineType.Directory.miss_latency_hist_seqr.first_response_to_completion::max_bucket           79                       (Unspecified)
system.caches.MachineType.Directory.miss_latency_hist_seqr.first_response_to_completion::samples            1                       (Unspecified)
system.caches.MachineType.Directory.miss_latency_hist_seqr.first_response_to_completion::mean           73                       (Unspecified)
system.caches.MachineType.Directory.miss_latency_hist_seqr.first_response_to_completion::gmean    73.000000                       (Unspecified)
system.caches.MachineType.Directory.miss_latency_hist_seqr.first_response_to_completion::stdev          nan                       (Unspecified)
system.caches.MachineType.Directory.miss_latency_hist_seqr.first_response_to_completion |           0      0.00%      0.00% |           0      0.00%      0.00% |           0      0.00%      0.00% |           0      0.00%      0.00% |           0      0.00%      0.00% |           0      0.00%      0.00% |           0      0.00%      0.00% |           0      0.00%      0.00% |           0      0.00%      0.00% |           1    100.00%    100.00% (Unspecified)
system.caches.MachineType.Directory.miss_latency_hist_seqr.first_response_to_completion::total            1                       (Unspecified)
system.caches.MachineType.Directory.incomplete_times_seqr     22351511                       (Unspecified)
system.caches.RequestType.LD.latency_hist_seqr::bucket_size          128                       (Unspecified)
system.caches.RequestType.LD.latency_hist_seqr::max_bucket         1279                       (Unspecified)
system.caches.RequestType.LD.latency_hist_seqr::samples     12128604                       (Unspecified)
system.caches.RequestType.LD.latency_hist_seqr::mean    26.124324                       (Unspecified)
system.caches.RequestType.LD.latency_hist_seqr::gmean    11.779093                       (Unspecified)
system.caches.RequestType.LD.latency_hist_seqr::stdev    24.107986                       (Unspecified)
system.caches.RequestType.LD.latency_hist_seqr |    12055554     99.40%     99.40% |       63931      0.53%     99.92% |        8069      0.07%     99.99% |         958      0.01%    100.00% |          91      0.00%    100.00% |           1      0.00%    100.00% |           0      0.00%    100.00% |           0      0.00%    100.00% |           0      0.00%    100.00% |           0      0.00%    100.00% (Unspecified)
system.caches.RequestType.LD.latency_hist_seqr::total     12128604                       (Unspecified)
system.caches.RequestType.LD.hit_latency_hist_seqr::bucket_size           64                       (Unspecified)
system.caches.RequestType.LD.hit_latency_hist_seqr::max_bucket          639                       (Unspecified)
system.caches.RequestType.LD.hit_latency_hist_seqr::samples      4541636                       (Unspecified)
system.caches.RequestType.LD.hit_latency_hist_seqr::mean     5.216411                       (Unspecified)
system.caches.RequestType.LD.hit_latency_hist_seqr::gmean     1.843665                       (Unspecified)
system.caches.RequestType.LD.hit_latency_hist_seqr::stdev    10.016096                       (Unspecified)
system.caches.RequestType.LD.hit_latency_hist_seqr |     4531601     99.78%     99.78% |        8077      0.18%     99.96% |        1375      0.03%     99.99% |         302      0.01%     99.99% |         201      0.00%    100.00% |          65      0.00%    100.00% |           9      0.00%    100.00% |           5      0.00%    100.00% |           1      0.00%    100.00% |           0      0.00%    100.00% (Unspecified)
system.caches.RequestType.LD.hit_latency_hist_seqr::total      4541636                       (Unspecified)
system.caches.RequestType.LD.miss_latency_hist_seqr::bucket_size          128                       (Unspecified)
system.caches.RequestType.LD.miss_latency_hist_seqr::max_bucket         1279                       (Unspecified)
system.caches.RequestType.LD.miss_latency_hist_seqr::samples      7586968                       (Unspecified)
system.caches.RequestType.LD.miss_latency_hist_seqr::mean    38.640013                       (Unspecified)
system.caches.RequestType.LD.miss_latency_hist_seqr::gmean    35.747884                       (Unspecified)
system.caches.RequestType.LD.miss_latency_hist_seqr::stdev    21.230424                       (Unspecified)
system.caches.RequestType.LD.miss_latency_hist_seqr |     7515876     99.06%     99.06% |       62254      0.82%     99.88% |        7803      0.10%     99.99% |         944      0.01%    100.00% |          90      0.00%    100.00% |           1      0.00%    100.00% |           0      0.00%    100.00% |           0      0.00%    100.00% |           0      0.00%    100.00% |           0      0.00%    100.00% (Unspecified)
system.caches.RequestType.LD.miss_latency_hist_seqr::total      7586968                       (Unspecified)
system.caches.RequestType.ST.latency_hist_seqr::bucket_size           64                       (Unspecified)
system.caches.RequestType.ST.latency_hist_seqr::max_bucket          639                       (Unspecified)
system.caches.RequestType.ST.latency_hist_seqr::samples     10484466                       (Unspecified)
system.caches.RequestType.ST.latency_hist_seqr::mean    13.166589                       (Unspecified)
system.caches.RequestType.ST.latency_hist_seqr::gmean     3.000929                       (Unspecified)
system.caches.RequestType.ST.latency_hist_seqr::stdev    21.615682                       (Unspecified)
system.caches.RequestType.ST.latency_hist_seqr |    10240115     97.67%     97.67% |      221478      2.11%     99.78% |       16949      0.16%     99.94% |        3214      0.03%     99.97% |        1481      0.01%     99.99% |         948      0.01%    100.00% |         183      0.00%    100.00% |          82      0.00%    100.00% |          16      0.00%    100.00% |           0      0.00%    100.00% (Unspecified)
system.caches.RequestType.ST.latency_hist_seqr::total     10484466                       (Unspecified)
system.caches.RequestType.ST.hit_latency_hist_seqr::bucket_size           64                       (Unspecified)
system.caches.RequestType.ST.hit_latency_hist_seqr::max_bucket          639                       (Unspecified)
system.caches.RequestType.ST.hit_latency_hist_seqr::samples      7727271                       (Unspecified)
system.caches.RequestType.ST.hit_latency_hist_seqr::mean     2.227227                       (Unspecified)
system.caches.RequestType.ST.hit_latency_hist_seqr::gmean     1.181700                       (Unspecified)
system.caches.RequestType.ST.hit_latency_hist_seqr::stdev     6.205878                       (Unspecified)
system.caches.RequestType.ST.hit_latency_hist_seqr |     7722890     99.94%     99.94% |        3132      0.04%     99.98% |         521      0.01%     99.99% |         314      0.00%     99.99% |         331      0.00%    100.00% |          74      0.00%    100.00% |           5      0.00%    100.00% |           3      0.00%    100.00% |           1      0.00%    100.00% |           0      0.00%    100.00% (Unspecified)
system.caches.RequestType.ST.hit_latency_hist_seqr::total      7727271                       (Unspecified)
system.caches.RequestType.ST.miss_latency_hist_seqr::bucket_size           64                       (Unspecified)
system.caches.RequestType.ST.miss_latency_hist_seqr::max_bucket          639                       (Unspecified)
system.caches.RequestType.ST.miss_latency_hist_seqr::samples      2757195                       (Unspecified)
system.caches.RequestType.ST.miss_latency_hist_seqr::mean    43.825073                       (Unspecified)
system.caches.RequestType.ST.miss_latency_hist_seqr::gmean    40.888113                       (Unspecified)
system.caches.RequestType.ST.miss_latency_hist_seqr::stdev    19.835526                       (Unspecified)
system.caches.RequestType.ST.miss_latency_hist_seqr |     2517225     91.30%     91.30% |      218346      7.92%     99.22% |       16428      0.60%     99.81% |        2900      0.11%     99.92% |        1150      0.04%     99.96% |         874      0.03%     99.99% |         178      0.01%    100.00% |          79      0.00%    100.00% |          15      0.00%    100.00% |           0      0.00%    100.00% (Unspecified)
system.caches.RequestType.ST.miss_latency_hist_seqr::total      2757195                       (Unspecified)
system.caches.RequestType.IFETCH.latency_hist_seqr::bucket_size          128                       (Unspecified)
system.caches.RequestType.IFETCH.latency_hist_seqr::max_bucket         1279                       (Unspecified)
system.caches.RequestType.IFETCH.latency_hist_seqr::samples     21554996                       (Unspecified)
system.caches.RequestType.IFETCH.latency_hist_seqr::mean    21.302549                       (Unspecified)
system.caches.RequestType.IFETCH.latency_hist_seqr::gmean     7.194147                       (Unspecified)
system.caches.RequestType.IFETCH.latency_hist_seqr::stdev    21.995691                       (Unspecified)
system.caches.RequestType.IFETCH.latency_hist_seqr |    21505232     99.77%     99.77% |       43614      0.20%     99.97% |        5480      0.03%    100.00% |         621      0.00%    100.00% |          48      0.00%    100.00% |           1      0.00%    100.00% |           0      0.00%    100.00% |           0      0.00%    100.00% |           0      0.00%    100.00% |           0      0.00%    100.00% (Unspecified)
system.caches.RequestType.IFETCH.latency_hist_seqr::total     21554996                       (Unspecified)
system.caches.RequestType.IFETCH.hit_latency_hist_seqr::bucket_size           64                       (Unspecified)
system.caches.RequestType.IFETCH.hit_latency_hist_seqr::max_bucket          639                       (Unspecified)
system.caches.RequestType.IFETCH.hit_latency_hist_seqr::samples     10029906                       (Unspecified)
system.caches.RequestType.IFETCH.hit_latency_hist_seqr::mean     1.516934                       (Unspecified)
system.caches.RequestType.IFETCH.hit_latency_hist_seqr::gmean     1.113953                       (Unspecified)
system.caches.RequestType.IFETCH.hit_latency_hist_seqr::stdev     3.489034                       (Unspecified)
system.caches.RequestType.IFETCH.hit_latency_hist_seqr |    10028031     99.98%     99.98% |        1163      0.01%     99.99% |         367      0.00%    100.00% |         211      0.00%    100.00% |         105      0.00%    100.00% |          21      0.00%    100.00% |           6      0.00%    100.00% |           2      0.00%    100.00% |           0      0.00%    100.00% |           0      0.00%    100.00% (Unspecified)
system.caches.RequestType.IFETCH.hit_latency_hist_seqr::total     10029906                       (Unspecified)
system.caches.RequestType.IFETCH.miss_latency_hist_seqr::bucket_size          128                       (Unspecified)
system.caches.RequestType.IFETCH.miss_latency_hist_seqr::max_bucket         1279                       (Unspecified)
system.caches.RequestType.IFETCH.miss_latency_hist_seqr::samples     11525090                       (Unspecified)
system.caches.RequestType.IFETCH.miss_latency_hist_seqr::mean    38.521318                       (Unspecified)
system.caches.RequestType.IFETCH.miss_latency_hist_seqr::gmean    36.474840                       (Unspecified)
system.caches.RequestType.IFETCH.miss_latency_hist_seqr::stdev    16.034048                       (Unspecified)
system.caches.RequestType.IFETCH.miss_latency_hist_seqr |    11476038     99.57%     99.57% |       43036      0.37%     99.95% |        5354      0.05%     99.99% |         613      0.01%    100.00% |          48      0.00%    100.00% |           1      0.00%    100.00% |           0      0.00%    100.00% |           0      0.00%    100.00% |           0      0.00%    100.00% |           0      0.00%    100.00% (Unspecified)
system.caches.RequestType.IFETCH.miss_latency_hist_seqr::total     11525090                       (Unspecified)
system.caches.RequestType.RMW_Read.latency_hist_seqr::bucket_size           64                       (Unspecified)
system.caches.RequestType.RMW_Read.latency_hist_seqr::max_bucket          639                       (Unspecified)
system.caches.RequestType.RMW_Read.latency_hist_seqr::samples      1483166                       (Unspecified)
system.caches.RequestType.RMW_Read.latency_hist_seqr::mean    29.671472                       (Unspecified)
system.caches.RequestType.RMW_Read.latency_hist_seqr::gmean     9.857922                       (Unspecified)
system.caches.RequestType.RMW_Read.latency_hist_seqr::stdev    32.143613                       (Unspecified)
system.caches.RequestType.RMW_Read.latency_hist_seqr |     1099525     74.13%     74.13% |      382753     25.81%     99.94% |         743      0.05%     99.99% |          92      0.01%    100.00% |          30      0.00%    100.00% |          10      0.00%    100.00% |           6      0.00%    100.00% |           4      0.00%    100.00% |           3      0.00%    100.00% |           0      0.00%    100.00% (Unspecified)
system.caches.RequestType.RMW_Read.latency_hist_seqr::total      1483166                       (Unspecified)
system.caches.RequestType.RMW_Read.hit_latency_hist_seqr::bucket_size           64                       (Unspecified)
system.caches.RequestType.RMW_Read.hit_latency_hist_seqr::max_bucket          639                       (Unspecified)
system.caches.RequestType.RMW_Read.hit_latency_hist_seqr::samples      1000907                       (Unspecified)
system.caches.RequestType.RMW_Read.hit_latency_hist_seqr::mean    10.098588                       (Unspecified)
system.caches.RequestType.RMW_Read.hit_latency_hist_seqr::gmean     3.938358                       (Unspecified)
system.caches.RequestType.RMW_Read.hit_latency_hist_seqr::stdev    12.613947                       (Unspecified)
system.caches.RequestType.RMW_Read.hit_latency_hist_seqr |     1000088     99.92%     99.92% |         175      0.02%     99.94% |         590      0.06%     99.99% |          31      0.00%    100.00% |          17      0.00%    100.00% |           2      0.00%    100.00% |           3      0.00%    100.00% |           1      0.00%    100.00% |           0      0.00%    100.00% |           0      0.00%    100.00% (Unspecified)
system.caches.RequestType.RMW_Read.hit_latency_hist_seqr::total      1000907                       (Unspecified)
system.caches.RequestType.RMW_Read.miss_latency_hist_seqr::bucket_size           64                       (Unspecified)
system.caches.RequestType.RMW_Read.miss_latency_hist_seqr::max_bucket          639                       (Unspecified)
system.caches.RequestType.RMW_Read.miss_latency_hist_seqr::samples       482259                       (Unspecified)
system.caches.RequestType.RMW_Read.miss_latency_hist_seqr::mean    70.294120                       (Unspecified)
system.caches.RequestType.RMW_Read.miss_latency_hist_seqr::gmean    66.189998                       (Unspecified)
system.caches.RequestType.RMW_Read.miss_latency_hist_seqr::stdev    20.051554                       (Unspecified)
system.caches.RequestType.RMW_Read.miss_latency_hist_seqr |       99437     20.62%     20.62% |      382578     79.33%     99.95% |         153      0.03%     99.98% |          61      0.01%     99.99% |          13      0.00%    100.00% |           8      0.00%    100.00% |           3      0.00%    100.00% |           3      0.00%    100.00% |           3      0.00%    100.00% |           0      0.00%    100.00% (Unspecified)
system.caches.RequestType.RMW_Read.miss_latency_hist_seqr::total       482259                       (Unspecified)
system.caches.RequestTypeMachineType.LD.Directory.miss_type_mach_latency_hist_seqr::bucket_size          128                       (Unspecified)
system.caches.RequestTypeMachineType.LD.Directory.miss_type_mach_latency_hist_seqr::max_bucket         1279                       (Unspecified)
system.caches.RequestTypeMachineType.LD.Directory.miss_type_mach_latency_hist_seqr::samples      7586968                       (Unspecified)
system.caches.RequestTypeMachineType.LD.Directory.miss_type_mach_latency_hist_seqr::mean    38.640013                       (Unspecified)
system.caches.RequestTypeMachineType.LD.Directory.miss_type_mach_latency_hist_seqr::gmean    35.747884                       (Unspecified)
system.caches.RequestTypeMachineType.LD.Directory.miss_type_mach_latency_hist_seqr::stdev    21.230424                       (Unspecified)
system.caches.RequestTypeMachineType.LD.Directory.miss_type_mach_latency_hist_seqr |     7515876     99.06%     99.06% |       62254      0.82%     99.88% |        7803      0.10%     99.99% |         944      0.01%    100.00% |          90      0.00%    100.00% |           1      0.00%    100.00% |           0      0.00%    100.00% |           0      0.00%    100.00% |           0      0.00%    100.00% |           0      0.00%    100.00% (Unspecified)
system.caches.RequestTypeMachineType.LD.Directory.miss_type_mach_latency_hist_seqr::total      7586968                       (Unspecified)
system.caches.RequestTypeMachineType.ST.Directory.miss_type_mach_latency_hist_seqr::bucket_size           64                       (Unspecified)
system.caches.RequestTypeMachineType.ST.Directory.miss_type_mach_latency_hist_seqr::max_bucket          639                       (Unspecified)
system.caches.RequestTypeMachineType.ST.Directory.miss_type_mach_latency_hist_seqr::samples      2757195                       (Unspecified)
system.caches.RequestTypeMachineType.ST.Directory.miss_type_mach_latency_hist_seqr::mean    43.825073                       (Unspecified)
system.caches.RequestTypeMachineType.ST.Directory.miss_type_mach_latency_hist_seqr::gmean    40.888113                       (Unspecified)
system.caches.RequestTypeMachineType.ST.Directory.miss_type_mach_latency_hist_seqr::stdev    19.835526                       (Unspecified)
system.caches.RequestTypeMachineType.ST.Directory.miss_type_mach_latency_hist_seqr |     2517225     91.30%     91.30% |      218346      7.92%     99.22% |       16428      0.60%     99.81% |        2900      0.11%     99.92% |        1150      0.04%     99.96% |         874      0.03%     99.99% |         178      0.01%    100.00% |          79      0.00%    100.00% |          15      0.00%    100.00% |           0      0.00%    100.00% (Unspecified)
system.caches.RequestTypeMachineType.ST.Directory.miss_type_mach_latency_hist_seqr::total      2757195                       (Unspecified)
system.caches.RequestTypeMachineType.IFETCH.Directory.miss_type_mach_latency_hist_seqr::bucket_size          128                       (Unspecified)
system.caches.RequestTypeMachineType.IFETCH.Directory.miss_type_mach_latency_hist_seqr::max_bucket         1279                       (Unspecified)
system.caches.RequestTypeMachineType.IFETCH.Directory.miss_type_mach_latency_hist_seqr::samples     11525090                       (Unspecified)
system.caches.RequestTypeMachineType.IFETCH.Directory.miss_type_mach_latency_hist_seqr::mean    38.521318                       (Unspecified)
system.caches.RequestTypeMachineType.IFETCH.Directory.miss_type_mach_latency_hist_seqr::gmean    36.474840                       (Unspecified)
system.caches.RequestTypeMachineType.IFETCH.Directory.miss_type_mach_latency_hist_seqr::stdev    16.034048                       (Unspecified)
system.caches.RequestTypeMachineType.IFETCH.Directory.miss_type_mach_latency_hist_seqr |    11476038     99.57%     99.57% |       43036      0.37%     99.95% |        5354      0.05%     99.99% |         613      0.01%    100.00% |          48      0.00%    100.00% |           1      0.00%    100.00% |           0      0.00%    100.00% |           0      0.00%    100.00% |           0      0.00%    100.00% |           0      0.00%    100.00% (Unspecified)
system.caches.RequestTypeMachineType.IFETCH.Directory.miss_type_mach_latency_hist_seqr::total     11525090                       (Unspecified)
system.caches.RequestTypeMachineType.RMW_Read.Directory.miss_type_mach_latency_hist_seqr::bucket_size           64                       (Unspecified)
system.caches.RequestTypeMachineType.RMW_Read.Directory.miss_type_mach_latency_hist_seqr::max_bucket          639                       (Unspecified)
system.caches.RequestTypeMachineType.RMW_Read.Directory.miss_type_mach_latency_hist_seqr::samples       482259                       (Unspecified)
system.caches.RequestTypeMachineType.RMW_Read.Directory.miss_type_mach_latency_hist_seqr::mean    70.294120                       (Unspecified)
system.caches.RequestTypeMachineType.RMW_Read.Directory.miss_type_mach_latency_hist_seqr::gmean    66.189998                       (Unspecified)
system.caches.RequestTypeMachineType.RMW_Read.Directory.miss_type_mach_latency_hist_seqr::stdev    20.051554                       (Unspecified)
system.caches.RequestTypeMachineType.RMW_Read.Directory.miss_type_mach_latency_hist_seqr |       99437     20.62%     20.62% |      382578     79.33%     99.95% |         153      0.03%     99.98% |          61      0.01%     99.99% |          13      0.00%    100.00% |           8      0.00%    100.00% |           3      0.00%    100.00% |           3      0.00%    100.00% |           3      0.00%    100.00% |           0      0.00%    100.00% (Unspecified)
system.caches.RequestTypeMachineType.RMW_Read.Directory.miss_type_mach_latency_hist_seqr::total       482259                       (Unspecified)
system.caches.controllers0.delayHistogram::samples     44702992                       # delay_histogram (Unspecified)
system.caches.controllers0.delayHistogram::mean     0.678249                       # delay_histogram (Unspecified)
system.caches.controllers0.delayHistogram::stdev     1.873040                       # delay_histogram (Unspecified)
system.caches.controllers0.delayHistogram::0-3     39861113     89.17%     89.17% # delay_histogram (Unspecified)
system.caches.controllers0.delayHistogram::4-7      4806663     10.75%     99.92% # delay_histogram (Unspecified)
system.caches.controllers0.delayHistogram::8-11        27164      0.06%     99.98% # delay_histogram (Unspecified)
system.caches.controllers0.delayHistogram::12-15          218      0.00%     99.98% # delay_histogram (Unspecified)
system.caches.controllers0.delayHistogram::16-19         5119      0.01%     99.99% # delay_histogram (Unspecified)
system.caches.controllers0.delayHistogram::20-23          225      0.00%     99.99% # delay_histogram (Unspecified)
system.caches.controllers0.delayHistogram::24-27         2246      0.01%    100.00% # delay_histogram (Unspecified)
system.caches.controllers0.delayHistogram::28-31          202      0.00%    100.00% # delay_histogram (Unspecified)
system.caches.controllers0.delayHistogram::32-35           13      0.00%    100.00% # delay_histogram (Unspecified)
system.caches.controllers0.delayHistogram::36-39           29      0.00%    100.00% # delay_histogram (Unspecified)
system.caches.controllers0.delayHistogram::total     44702992                       # delay_histogram (Unspecified)
system.caches.controllers0.cacheMemory.m_demand_hits     23299720                       # Number of cache demand hits (Unspecified)
system.caches.controllers0.cacheMemory.m_demand_misses     22351513                       # Number of cache demand misses (Unspecified)
system.caches.controllers0.cacheMemory.m_demand_accesses     45651233                       # Number of cache demand accesses (Unspecified)
system.caches.controllers0.forwardToCache.m_buf_msgs     0.043730                       # Average number of messages in buffer (Unspecified)
system.caches.controllers0.forwardToCache.m_stall_time  5649.565379                       # Average number of cycles messages are stalled in this MB (Unspecified)
system.caches.controllers0.mandatoryQueue.m_buf_msgs     0.564398                       # Average number of messages in buffer (Unspecified)
system.caches.controllers0.mandatoryQueue.m_stall_time  5613.469123                       # Average number of cycles messages are stalled in this MB (Unspecified)
system.caches.controllers0.power_state.pwrStateResidencyTicks::UNDEFINED 511122476000                       # Cumulative time (in ticks) in various power states (Tick)
system.caches.controllers0.requestFromCache.m_buf_msgs     0.174921                       # Average number of messages in buffer (Unspecified)
system.caches.controllers0.requestFromCache.m_stall_time  1999.999988                       # Average number of cycles messages are stalled in this MB (Unspecified)
system.caches.controllers0.responseToCache.m_buf_msgs     0.043730                       # Average number of messages in buffer (Unspecified)
system.caches.controllers0.responseToCache.m_stall_time  5008.936905                       # Average number of cycles messages are stalled in this MB (Unspecified)
system.caches.controllers1.forwardFromDir.m_buf_msgs     0.043730                       # Average number of messages in buffer (Unspecified)
system.caches.controllers1.forwardFromDir.m_stall_time   999.998308                       # Average number of cycles messages are stalled in this MB (Unspecified)
system.caches.controllers1.power_state.pwrStateResidencyTicks::UNDEFINED 511122476000                       # Cumulative time (in ticks) in various power states (Tick)
system.caches.controllers1.requestToDir.m_buf_msgs     0.087460                       # Average number of messages in buffer (Unspecified)
system.caches.controllers1.requestToDir.m_stall_time 10045.568779                       # Average number of cycles messages are stalled in this MB (Unspecified)
system.caches.controllers1.requestToMemory.m_buf_msgs     0.087461                       # Average number of messages in buffer (Unspecified)
system.caches.controllers1.requestToMemory.m_stall_time  1000.000331                       # Average number of cycles messages are stalled in this MB (Unspecified)
system.caches.controllers1.responseFromDir.m_buf_msgs     0.043730                       # Average number of messages in buffer (Unspecified)
system.caches.controllers1.responseFromDir.m_stall_time   999.999865                       # Average number of cycles messages are stalled in this MB (Unspecified)
system.caches.controllers1.responseFromMemory.m_buf_msgs     0.087927                       # Average number of messages in buffer (Unspecified)
system.caches.controllers1.responseFromMemory.m_stall_time   999.999867                       # Average number of cycles messages are stalled in this MB (Unspecified)
system.caches.network.msg_count.Control      44703024                       (Unspecified)
system.caches.network.msg_byte.Control      357624192                       (Unspecified)
system.caches.network.msg_count.Data         44702962                       (Unspecified)
system.caches.network.msg_byte.Data        3218613264                       (Unspecified)
system.caches.network.msg_count.Response_Data     44703024                       (Unspecified)
system.caches.network.msg_byte.Response_Data   3218617728                       (Unspecified)
system.caches.network.msg_count.Writeback_Control     44702960                       (Unspecified)
system.caches.network.msg_byte.Writeback_Control    357623680                       (Unspecified)
system.caches.network.int_link_buffers2.m_buf_msgs     0.087460                       # Average number of messages in buffer (Unspecified)
system.caches.network.int_link_buffers2.m_stall_time  8045.568822                       # Average number of cycles messages are stalled in this MB (Unspecified)
system.caches.network.int_link_buffers8.m_buf_msgs     0.043730                       # Average number of messages in buffer (Unspecified)
system.caches.network.int_link_buffers8.m_stall_time  3649.568791                       # Average number of cycles messages are stalled in this MB (Unspecified)
system.caches.network.int_link_buffers9.m_buf_msgs     0.043730                       # Average number of messages in buffer (Unspecified)
system.caches.network.int_link_buffers9.m_stall_time  3008.937202                       # Average number of cycles messages are stalled in this MB (Unspecified)
system.caches.network.power_state.pwrStateResidencyTicks::UNDEFINED 511122476000                       # Cumulative time (in ticks) in various power states (Tick)
system.caches.network.routers0.percent_links_utilized    21.865108                       (Unspecified)
system.caches.network.routers0.msg_count.Control::2     22351512                       (Unspecified)
system.caches.network.routers0.msg_bytes.Control::2    178812096                       (Unspecified)
system.caches.network.routers0.msg_count.Data::2     22351481                       (Unspecified)
system.caches.network.routers0.msg_bytes.Data::2   1609306632                       (Unspecified)
system.caches.network.routers0.msg_count.Response_Data::4     22351512                       (Unspecified)
system.caches.network.routers0.msg_bytes.Response_Data::4   1609308864                       (Unspecified)
system.caches.network.routers0.msg_count.Writeback_Control::3     22351480                       (Unspecified)
system.caches.network.routers0.msg_bytes.Writeback_Control::3    178811840                       (Unspecified)
system.caches.network.routers0.port_buffers3.m_buf_msgs     0.043730                       # Average number of messages in buffer (Unspecified)
system.caches.network.routers0.port_buffers3.m_stall_time  4649.567087                       # Average number of cycles messages are stalled in this MB (Unspecified)
system.caches.network.routers0.port_buffers4.m_buf_msgs     0.043730                       # Average number of messages in buffer (Unspecified)
system.caches.network.routers0.port_buffers4.m_stall_time  4008.937056                       # Average number of cycles messages are stalled in this MB (Unspecified)
system.caches.network.routers0.port_buffers7.m_buf_msgs     0.322735                       # Average number of messages in buffer (Unspecified)
system.caches.network.routers0.port_buffers7.m_stall_time  7045.568837                       # Average number of cycles messages are stalled in this MB (Unspecified)
system.caches.network.routers0.power_state.pwrStateResidencyTicks::UNDEFINED 511122476000                       # Cumulative time (in ticks) in various power states (Tick)
system.caches.network.routers0.throttle00.link_utilization    21.865120                       (Unspecified)
system.caches.network.routers0.throttle00.msg_count.Response_Data::4     22351512                       (Unspecified)
system.caches.network.routers0.throttle00.msg_bytes.Response_Data::4   1609308864                       (Unspecified)
system.caches.network.routers0.throttle00.msg_count.Writeback_Control::3     22351480                       (Unspecified)
system.caches.network.routers0.throttle00.msg_bytes.Writeback_Control::3    178811840                       (Unspecified)
system.caches.network.routers0.throttle01.link_utilization    21.865096                       (Unspecified)
system.caches.network.routers0.throttle01.msg_count.Control::2     22351512                       (Unspecified)
system.caches.network.routers0.throttle01.msg_bytes.Control::2    178812096                       (Unspecified)
system.caches.network.routers0.throttle01.msg_count.Data::2     22351481                       (Unspecified)
system.caches.network.routers0.throttle01.msg_bytes.Data::2   1609306632                       (Unspecified)
system.caches.network.routers1.percent_links_utilized    21.865108                       (Unspecified)
system.caches.network.routers1.msg_count.Control::2     22351512                       (Unspecified)
system.caches.network.routers1.msg_bytes.Control::2    178812096                       (Unspecified)
system.caches.network.routers1.msg_count.Data::2     22351481                       (Unspecified)
system.caches.network.routers1.msg_bytes.Data::2   1609306632                       (Unspecified)
system.caches.network.routers1.msg_count.Response_Data::4     22351512                       (Unspecified)
system.caches.network.routers1.msg_bytes.Response_Data::4   1609308864                       (Unspecified)
system.caches.network.routers1.msg_count.Writeback_Control::3     22351480                       (Unspecified)
system.caches.network.routers1.msg_bytes.Writeback_Control::3    178811840                       (Unspecified)
system.caches.network.routers1.port_buffers2.m_buf_msgs     0.087460                       # Average number of messages in buffer (Unspecified)
system.caches.network.routers1.port_buffers2.m_stall_time  9045.568802                       # Average number of cycles messages are stalled in this MB (Unspecified)
system.caches.network.routers1.port_buffers6.m_buf_msgs     0.073069                       # Average number of messages in buffer (Unspecified)
system.caches.network.routers1.port_buffers6.m_stall_time  2649.570492                       # Average number of cycles messages are stalled in this MB (Unspecified)
system.caches.network.routers1.port_buffers7.m_buf_msgs     0.044051                       # Average number of messages in buffer (Unspecified)
system.caches.network.routers1.port_buffers7.m_stall_time  2008.937345                       # Average number of cycles messages are stalled in this MB (Unspecified)
system.caches.network.routers1.power_state.pwrStateResidencyTicks::UNDEFINED 511122476000                       # Cumulative time (in ticks) in various power states (Tick)
system.caches.network.routers1.throttle00.link_utilization    21.865096                       (Unspecified)
system.caches.network.routers1.throttle00.msg_count.Control::2     22351512                       (Unspecified)
system.caches.network.routers1.throttle00.msg_bytes.Control::2    178812096                       (Unspecified)
system.caches.network.routers1.throttle00.msg_count.Data::2     22351481                       (Unspecified)
system.caches.network.routers1.throttle00.msg_bytes.Data::2   1609306632                       (Unspecified)
system.caches.network.routers1.throttle01.link_utilization    21.865120                       (Unspecified)
system.caches.network.routers1.throttle01.msg_count.Response_Data::4     22351512                       (Unspecified)
system.caches.network.routers1.throttle01.msg_bytes.Response_Data::4   1609308864                       (Unspecified)
system.caches.network.routers1.throttle01.msg_count.Writeback_Control::3     22351480                       (Unspecified)
system.caches.network.routers1.throttle01.msg_bytes.Writeback_Control::3    178811840                       (Unspecified)
system.caches.power_state.pwrStateResidencyTicks::UNDEFINED 511122476000                       # Cumulative time (in ticks) in various power states (Tick)
system.caches.sequencers.power_state.pwrStateResidencyTicks::UNDEFINED 511122476000                       # Cumulative time (in ticks) in various power states (Tick)
system.caches.sys_port_proxy.power_state.pwrStateResidencyTicks::UNDEFINED 511122476000                       # Cumulative time (in ticks) in various power states (Tick)
system.clk_domain.clock                          1000                       # Clock period in ticks (Tick)
system.clk_domain.voltage_domain.voltage            1                       # Voltage in Volts (Volt)
system.cpu.numCycles                        511122477                       # Number of cpu cycles simulated (Cycle)
system.cpu.numWorkItemsStarted                      0                       # Number of work items this cpu started (Count)
system.cpu.numWorkItemsCompleted                    0                       # Number of work items this cpu completed (Count)
system.cpu.instsAdded                       225782667                       # Number of instructions added to the IQ (excludes non-spec) (Count)
system.cpu.nonSpecInstsAdded                  1336737                       # Number of non-speculative instructions added to the IQ (Count)
system.cpu.instsIssued                      149799698                       # Number of instructions issued (Count)
system.cpu.squashedInstsIssued                    621                       # Number of squashed instructions issued (Count)
system.cpu.squashedInstsExamined            143917445                       # Number of squashed instructions iterated over during squash; mainly for profiling (Count)
system.cpu.squashedOperandsExamined         297948956                       # Number of squashed operands that are examined and possibly removed from graph (Count)
system.cpu.squashedNonSpecRemoved              419097                       # Number of squashed non-spec instructions that were removed (Count)
system.cpu.numIssuedDist::samples           420353717                       # Number of insts issued each cycle (Count)
system.cpu.numIssuedDist::mean               0.356366                       # Number of insts issued each cycle (Count)
system.cpu.numIssuedDist::stdev              0.995586                       # Number of insts issued each cycle (Count)
system.cpu.numIssuedDist::underflows                0      0.00%      0.00% # Number of insts issued each cycle (Count)
system.cpu.numIssuedDist::0                 354025788     84.22%     84.22% # Number of insts issued each cycle (Count)
system.cpu.numIssuedDist::1                  26958111      6.41%     90.63% # Number of insts issued each cycle (Count)
system.cpu.numIssuedDist::2                  16927480      4.03%     94.66% # Number of insts issued each cycle (Count)
system.cpu.numIssuedDist::3                   8875071      2.11%     96.77% # Number of insts issued each cycle (Count)
system.cpu.numIssuedDist::4                   7640794      1.82%     98.59% # Number of insts issued each cycle (Count)
system.cpu.numIssuedDist::5                   4356006      1.04%     99.63% # Number of insts issued each cycle (Count)
system.cpu.numIssuedDist::6                   1005458      0.24%     99.87% # Number of insts issued each cycle (Count)
system.cpu.numIssuedDist::7                    534612      0.13%     99.99% # Number of insts issued each cycle (Count)
system.cpu.numIssuedDist::8                     30397      0.01%    100.00% # Number of insts issued each cycle (Count)
system.cpu.numIssuedDist::overflows                 0      0.00%    100.00% # Number of insts issued each cycle (Count)
system.cpu.numIssuedDist::min_value                 0                       # Number of insts issued each cycle (Count)
system.cpu.numIssuedDist::max_value                 8                       # Number of insts issued each cycle (Count)
system.cpu.numIssuedDist::total             420353717                       # Number of insts issued each cycle (Count)
system.cpu.statFuBusy::No_OpClass                   0      0.00%      0.00% # attempts to use FU when none available (Count)
system.cpu.statFuBusy::IntAlu                   26920      3.62%      3.62% # attempts to use FU when none available (Count)
system.cpu.statFuBusy::IntMult                      0      0.00%      3.62% # attempts to use FU when none available (Count)
system.cpu.statFuBusy::IntDiv                       0      0.00%      3.62% # attempts to use FU when none available (Count)
system.cpu.statFuBusy::FloatAdd                     0      0.00%      3.62% # attempts to use FU when none available (Count)
system.cpu.statFuBusy::FloatCmp                     0      0.00%      3.62% # attempts to use FU when none available (Count)
system.cpu.statFuBusy::FloatCvt                     0      0.00%      3.62% # attempts to use FU when none available (Count)
system.cpu.statFuBusy::FloatMult                    0      0.00%      3.62% # attempts to use FU when none available (Count)
system.cpu.statFuBusy::FloatMultAcc                 0      0.00%      3.62% # attempts to use FU when none available (Count)
system.cpu.statFuBusy::FloatDiv                     0      0.00%      3.62% # attempts to use FU when none available (Count)
system.cpu.statFuBusy::FloatMisc                    0      0.00%      3.62% # attempts to use FU when none available (Count)
system.cpu.statFuBusy::FloatSqrt                    0      0.00%      3.62% # attempts to use FU when none available (Count)
system.cpu.statFuBusy::SimdAdd                      0      0.00%      3.62% # attempts to use FU when none available (Count)
system.cpu.statFuBusy::SimdAddAcc                   0      0.00%      3.62% # attempts to use FU when none available (Count)
system.cpu.statFuBusy::SimdAlu                     37      0.00%      3.62% # attempts to use FU when none available (Count)
system.cpu.statFuBusy::SimdCmp                      0      0.00%      3.62% # attempts to use FU when none available (Count)
system.cpu.statFuBusy::SimdCvt                    638      0.09%      3.71% # attempts to use FU when none available (Count)
system.cpu.statFuBusy::SimdMisc                     1      0.00%      3.71% # attempts to use FU when none available (Count)
system.cpu.statFuBusy::SimdMult                     0      0.00%      3.71% # attempts to use FU when none available (Count)
system.cpu.statFuBusy::SimdMultAcc                  0      0.00%      3.71% # attempts to use FU when none available (Count)
system.cpu.statFuBusy::SimdShift                    0      0.00%      3.71% # attempts to use FU when none available (Count)
system.cpu.statFuBusy::SimdShiftAcc                 0      0.00%      3.71% # attempts to use FU when none available (Count)
system.cpu.statFuBusy::SimdDiv                      0      0.00%      3.71% # attempts to use FU when none available (Count)
system.cpu.statFuBusy::SimdSqrt                     0      0.00%      3.71% # attempts to use FU when none available (Count)
system.cpu.statFuBusy::SimdFloatAdd                 0      0.00%      3.71% # attempts to use FU when none available (Count)
system.cpu.statFuBusy::SimdFloatAlu                 0      0.00%      3.71% # attempts to use FU when none available (Count)
system.cpu.statFuBusy::SimdFloatCmp                 0      0.00%      3.71% # attempts to use FU when none available (Count)
system.cpu.statFuBusy::SimdFloatCvt                 0      0.00%      3.71% # attempts to use FU when none available (Count)
system.cpu.statFuBusy::SimdFloatDiv                 0      0.00%      3.71% # attempts to use FU when none available (Count)
system.cpu.statFuBusy::SimdFloatMisc                0      0.00%      3.71% # attempts to use FU when none available (Count)
system.cpu.statFuBusy::SimdFloatMult                0      0.00%      3.71% # attempts to use FU when none available (Count)
system.cpu.statFuBusy::SimdFloatMultAcc             0      0.00%      3.71% # attempts to use FU when none available (Count)
system.cpu.statFuBusy::SimdFloatSqrt                0      0.00%      3.71% # attempts to use FU when none available (Count)
system.cpu.statFuBusy::SimdReduceAdd                0      0.00%      3.71% # attempts to use FU when none available (Count)
system.cpu.statFuBusy::SimdReduceAlu                0      0.00%      3.71% # attempts to use FU when none available (Count)
system.cpu.statFuBusy::SimdReduceCmp                0      0.00%      3.71% # attempts to use FU when none available (Count)
system.cpu.statFuBusy::SimdFloatReduceAdd            0      0.00%      3.71% # attempts to use FU when none available (Count)
system.cpu.statFuBusy::SimdFloatReduceCmp            0      0.00%      3.71% # attempts to use FU when none available (Count)
system.cpu.statFuBusy::SimdAes                      0      0.00%      3.71% # attempts to use FU when none available (Count)
system.cpu.statFuBusy::SimdAesMix                   0      0.00%      3.71% # attempts to use FU when none available (Count)
system.cpu.statFuBusy::SimdSha1Hash                 0      0.00%      3.71% # attempts to use FU when none available (Count)
system.cpu.statFuBusy::SimdSha1Hash2                0      0.00%      3.71% # attempts to use FU when none available (Count)
system.cpu.statFuBusy::SimdSha256Hash               0      0.00%      3.71% # attempts to use FU when none available (Count)
system.cpu.statFuBusy::SimdSha256Hash2              0      0.00%      3.71% # attempts to use FU when none available (Count)
system.cpu.statFuBusy::SimdShaSigma2                0      0.00%      3.71% # attempts to use FU when none available (Count)
system.cpu.statFuBusy::SimdShaSigma3                0      0.00%      3.71% # attempts to use FU when none available (Count)
system.cpu.statFuBusy::SimdPredAlu                  0      0.00%      3.71% # attempts to use FU when none available (Count)
system.cpu.statFuBusy::MemRead                 705920     94.88%     98.59% # attempts to use FU when none available (Count)
system.cpu.statFuBusy::MemWrite                  8958      1.20%     99.79% # attempts to use FU when none available (Count)
system.cpu.statFuBusy::FloatMemRead              1481      0.20%     99.99% # attempts to use FU when none available (Count)
system.cpu.statFuBusy::FloatMemWrite               88      0.01%    100.00% # attempts to use FU when none available (Count)
system.cpu.statFuBusy::IprAccess                    0      0.00%    100.00% # attempts to use FU when none available (Count)
system.cpu.statFuBusy::InstPrefetch                 0      0.00%    100.00% # attempts to use FU when none available (Count)
system.cpu.statIssuedInstType_0::No_OpClass      2059289      1.37%      1.37% # Number of instructions issued per FU type, per thread (Count)
system.cpu.statIssuedInstType_0::IntAlu      90681584     60.54%     61.91% # Number of instructions issued per FU type, per thread (Count)
system.cpu.statIssuedInstType_0::IntMult         1907      0.00%     61.91% # Number of instructions issued per FU type, per thread (Count)
system.cpu.statIssuedInstType_0::IntDiv         40839      0.03%     61.94% # Number of instructions issued per FU type, per thread (Count)
system.cpu.statIssuedInstType_0::FloatAdd      2786982      1.86%     63.80% # Number of instructions issued per FU type, per thread (Count)
system.cpu.statIssuedInstType_0::FloatCmp            0      0.00%     63.80% # Number of instructions issued per FU type, per thread (Count)
system.cpu.statIssuedInstType_0::FloatCvt       262394      0.18%     63.97% # Number of instructions issued per FU type, per thread (Count)
system.cpu.statIssuedInstType_0::FloatMult       262144      0.17%     64.15% # Number of instructions issued per FU type, per thread (Count)
system.cpu.statIssuedInstType_0::FloatMultAcc            0      0.00%     64.15% # Number of instructions issued per FU type, per thread (Count)
system.cpu.statIssuedInstType_0::FloatDiv            0      0.00%     64.15% # Number of instructions issued per FU type, per thread (Count)
system.cpu.statIssuedInstType_0::FloatMisc            0      0.00%     64.15% # Number of instructions issued per FU type, per thread (Count)
system.cpu.statIssuedInstType_0::FloatSqrt            0      0.00%     64.15% # Number of instructions issued per FU type, per thread (Count)
system.cpu.statIssuedInstType_0::SimdAdd        11964      0.01%     64.16% # Number of instructions issued per FU type, per thread (Count)
system.cpu.statIssuedInstType_0::SimdAddAcc            0      0.00%     64.16% # Number of instructions issued per FU type, per thread (Count)
system.cpu.statIssuedInstType_0::SimdAlu       288285      0.19%     64.35% # Number of instructions issued per FU type, per thread (Count)
system.cpu.statIssuedInstType_0::SimdCmp            6      0.00%     64.35% # Number of instructions issued per FU type, per thread (Count)
system.cpu.statIssuedInstType_0::SimdCvt        26286      0.02%     64.37% # Number of instructions issued per FU type, per thread (Count)
system.cpu.statIssuedInstType_0::SimdMisc       574883      0.38%     64.75% # Number of instructions issued per FU type, per thread (Count)
system.cpu.statIssuedInstType_0::SimdMult            0      0.00%     64.75% # Number of instructions issued per FU type, per thread (Count)
system.cpu.statIssuedInstType_0::SimdMultAcc            0      0.00%     64.75% # Number of instructions issued per FU type, per thread (Count)
system.cpu.statIssuedInstType_0::SimdShift         1742      0.00%     64.75% # Number of instructions issued per FU type, per thread (Count)
system.cpu.statIssuedInstType_0::SimdShiftAcc            0      0.00%     64.75% # Number of instructions issued per FU type, per thread (Count)
system.cpu.statIssuedInstType_0::SimdDiv            0      0.00%     64.75% # Number of instructions issued per FU type, per thread (Count)
system.cpu.statIssuedInstType_0::SimdSqrt            0      0.00%     64.75% # Number of instructions issued per FU type, per thread (Count)
system.cpu.statIssuedInstType_0::SimdFloatAdd       526406      0.35%     65.10% # Number of instructions issued per FU type, per thread (Count)
system.cpu.statIssuedInstType_0::SimdFloatAlu            0      0.00%     65.10% # Number of instructions issued per FU type, per thread (Count)
system.cpu.statIssuedInstType_0::SimdFloatCmp            0      0.00%     65.10% # Number of instructions issued per FU type, per thread (Count)
system.cpu.statIssuedInstType_0::SimdFloatCvt       555264      0.37%     65.47% # Number of instructions issued per FU type, per thread (Count)
system.cpu.statIssuedInstType_0::SimdFloatDiv       262131      0.17%     65.65% # Number of instructions issued per FU type, per thread (Count)
system.cpu.statIssuedInstType_0::SimdFloatMisc            0      0.00%     65.65% # Number of instructions issued per FU type, per thread (Count)
system.cpu.statIssuedInstType_0::SimdFloatMult       395331      0.26%     65.91% # Number of instructions issued per FU type, per thread (Count)
system.cpu.statIssuedInstType_0::SimdFloatMultAcc            0      0.00%     65.91% # Number of instructions issued per FU type, per thread (Count)
system.cpu.statIssuedInstType_0::SimdFloatSqrt            0      0.00%     65.91% # Number of instructions issued per FU type, per thread (Count)
system.cpu.statIssuedInstType_0::SimdReduceAdd            0      0.00%     65.91% # Number of instructions issued per FU type, per thread (Count)
system.cpu.statIssuedInstType_0::SimdReduceAlu            0      0.00%     65.91% # Number of instructions issued per FU type, per thread (Count)
system.cpu.statIssuedInstType_0::SimdReduceCmp            0      0.00%     65.91% # Number of instructions issued per FU type, per thread (Count)
system.cpu.statIssuedInstType_0::SimdFloatReduceAdd            0      0.00%     65.91% # Number of instructions issued per FU type, per thread (Count)
system.cpu.statIssuedInstType_0::SimdFloatReduceCmp            0      0.00%     65.91% # Number of instructions issued per FU type, per thread (Count)
system.cpu.statIssuedInstType_0::SimdAes            0      0.00%     65.91% # Number of instructions issued per FU type, per thread (Count)
system.cpu.statIssuedInstType_0::SimdAesMix            0      0.00%     65.91% # Number of instructions issued per FU type, per thread (Count)
system.cpu.statIssuedInstType_0::SimdSha1Hash            0      0.00%     65.91% # Number of instructions issued per FU type, per thread (Count)
system.cpu.statIssuedInstType_0::SimdSha1Hash2            0      0.00%     65.91% # Number of instructions issued per FU type, per thread (Count)
system.cpu.statIssuedInstType_0::SimdSha256Hash            0      0.00%     65.91% # Number of instructions issued per FU type, per thread (Count)
system.cpu.statIssuedInstType_0::SimdSha256Hash2            0      0.00%     65.91% # Number of instructions issued per FU type, per thread (Count)
system.cpu.statIssuedInstType_0::SimdShaSigma2            0      0.00%     65.91% # Number of instructions issued per FU type, per thread (Count)
system.cpu.statIssuedInstType_0::SimdShaSigma3            0      0.00%     65.91% # Number of instructions issued per FU type, per thread (Count)
system.cpu.statIssuedInstType_0::SimdPredAlu            0      0.00%     65.91% # Number of instructions issued per FU type, per thread (Count)
system.cpu.statIssuedInstType_0::MemRead     35266414     23.54%     89.46% # Number of instructions issued per FU type, per thread (Count)
system.cpu.statIssuedInstType_0::MemWrite     10560914      7.05%     96.51% # Number of instructions issued per FU type, per thread (Count)
system.cpu.statIssuedInstType_0::FloatMemRead      3778555      2.52%     99.03% # Number of instructions issued per FU type, per thread (Count)
system.cpu.statIssuedInstType_0::FloatMemWrite      1456378      0.97%    100.00% # Number of instructions issued per FU type, per thread (Count)
system.cpu.statIssuedInstType_0::IprAccess            0      0.00%    100.00% # Number of instructions issued per FU type, per thread (Count)
system.cpu.statIssuedInstType_0::InstPrefetch            0      0.00%    100.00% # Number of instructions issued per FU type, per thread (Count)
system.cpu.statIssuedInstType_0::total      149799698                       # Number of instructions issued per FU type, per thread (Count)
system.cpu.issueRate                         0.293080                       # Inst issue rate ((Count/Cycle))
system.cpu.fuBusy                              744043                       # FU busy when requested (Count)
system.cpu.fuBusyRate                        0.004967                       # FU busy rate (busy events/executed inst) ((Count/Count))
system.cpu.intInstQueueReads                696211477                       # Number of integer instruction queue reads (Count)
system.cpu.intInstQueueWrites               351023665                       # Number of integer instruction queue writes (Count)
system.cpu.intInstQueueWakeupAccesses       124946610                       # Number of integer instruction queue wakeup accesses (Count)
system.cpu.fpInstQueueReads                  24486299                       # Number of floating instruction queue reads (Count)
system.cpu.fpInstQueueWrites                 20018134                       # Number of floating instruction queue writes (Count)
system.cpu.fpInstQueueWakeupAccesses         11371905                       # Number of floating instruction queue wakeup accesses (Count)
system.cpu.vecInstQueueReads                        0                       # Number of vector instruction queue reads (Count)
system.cpu.vecInstQueueWrites                       0                       # Number of vector instruction queue writes (Count)
system.cpu.vecInstQueueWakeupAccesses               0                       # Number of vector instruction queue wakeup accesses (Count)
system.cpu.intAluAccesses                   136240265                       # Number of integer alu accesses (Count)
system.cpu.fpAluAccesses                     12244187                       # Number of floating point alu accesses (Count)
system.cpu.vecAluAccesses                           0                       # Number of vector alu accesses (Count)
system.cpu.idleCycles                               0                       # Number of cycles IEW is idle (Cycle)
system.cpu.squashCycles                       3002930                       # Number of cycles IEW is squashing (Cycle)
system.cpu.blockCycles                       18798815                       # Number of cycles IEW is blocking (Cycle)
system.cpu.unblockCycles                      2427324                       # Number of cycles IEW is unblocking (Cycle)
system.cpu.dispatchedInsts                  227119404                       # Number of instructions dispatched to IQ (Count)
system.cpu.dispSquashedInsts                     1913                       # Number of squashed instructions skipped by dispatch (Count)
system.cpu.dispLoadInsts                     61471263                       # Number of dispatched load instructions (Count)
system.cpu.dispStoreInsts                    22298110                       # Number of dispatched store instructions (Count)
system.cpu.dispNonSpecInsts                   1336733                       # Number of dispatched non-speculative instructions (Count)
system.cpu.iqFullEvents                        135539                       # Number of times the IQ has become full, causing a stall (Count)
system.cpu.lsqFullEvents                      2303860                       # Number of times the LSQ has become full, causing a stall (Count)
system.cpu.memOrderViolationEvents               4952                       # Number of memory order violations (Count)
system.cpu.predictedTakenIncorrect              72686                       # Number of branches that were predicted taken incorrectly (Count)
system.cpu.predictedNotTakenIncorrect           76927                       # Number of branches that were predicted not taken incorrectly (Count)
system.cpu.branchMispredicts                   149613                       # Number of branch mispredicts detected at execute (Count)
system.cpu.numInsts                         149742279                       # Number of executed instructions (Count)
system.cpu.numLoadInsts                      39028534                       # Number of load instructions executed (Count)
system.cpu.numSquashedInsts                     57418                       # Number of squashed instructions skipped in execute (Count)
system.cpu.numSwp                                   0                       # Number of swp insts executed (Count)
system.cpu.numNop                                   0                       # Number of nop insts executed (Count)
system.cpu.numRefs                           51044005                       # Number of memory reference insts executed (Count)
system.cpu.numBranches                       11072109                       # Number of branches executed (Count)
system.cpu.numStoreInsts                     12015471                       # Number of stores executed (Count)
system.cpu.numRate                           0.292968                       # Inst execution rate ((Count/Cycle))
system.cpu.instsToCommit                    146851639                       # Cumulative count of insts sent to commit (Count)
system.cpu.writebackCount                   136318515                       # Cumulative count of insts written-back (Count)
system.cpu.producerInst                      96070986                       # Number of instructions producing a value (Count)
system.cpu.consumerInst                     133257041                       # Number of instructions consuming a value (Count)
system.cpu.wbRate                            0.266704                       # Insts written-back per cycle ((Count/Cycle))
system.cpu.wbFanout                          0.720945                       # Average fanout of values written-back ((Count/Count))
system.cpu.timesIdled                         8126762                       # Number of times that the entire CPU went into an idle state and unscheduled itself (Count)
system.cpu.idleCycles                        90768760                       # Total number of cycles that the CPU has spent unscheduled due to idling (Cycle)
system.cpu.committedInsts                    46698355                       # Number of Instructions Simulated (Count)
system.cpu.committedOps                      83201955                       # Number of Ops (including micro ops) Simulated (Count)
system.cpu.cpi                              10.945192                       # CPI: Cycles Per Instruction ((Cycle/Count))
system.cpu.totalCpi                         10.945192                       # CPI: Total CPI of All Threads ((Cycle/Count))
system.cpu.ipc                               0.091364                       # IPC: Instructions Per Cycle ((Count/Cycle))
system.cpu.totalIpc                          0.091364                       # IPC: Total IPC of All Threads ((Count/Cycle))
system.cpu.intRegfileReads                  205146996                       # Number of integer regfile reads (Count)
system.cpu.intRegfileWrites                 101221537                       # Number of integer regfile writes (Count)
system.cpu.fpRegfileReads                    10280873                       # Number of floating regfile reads (Count)
system.cpu.fpRegfileWrites                    9511448                       # Number of floating regfile writes (Count)
system.cpu.ccRegfileReads                    23225683                       # number of cc regfile reads (Count)
system.cpu.ccRegfileWrites                   23913712                       # number of cc regfile writes (Count)
system.cpu.miscRegfileReads                  77728082                       # number of misc regfile reads (Count)
system.cpu.miscRegfileWrites                  1835143                       # number of misc regfile writes (Count)
system.cpu.MemDepUnit__0.insertedLoads       61471263                       # Number of loads inserted to the mem dependence unit. (Count)
system.cpu.MemDepUnit__0.insertedStores      22298110                       # Number of stores inserted to the mem dependence unit. (Count)
system.cpu.MemDepUnit__0.conflictingLoads     22845751                       # Number of conflicting loads. (Count)
system.cpu.MemDepUnit__0.conflictingStores      5112159                       # Number of conflicting stores. (Count)
system.cpu.MemDepUnit__1.insertedLoads              0                       # Number of loads inserted to the mem dependence unit. (Count)
system.cpu.MemDepUnit__1.insertedStores             0                       # Number of stores inserted to the mem dependence unit. (Count)
system.cpu.MemDepUnit__1.conflictingLoads            0                       # Number of conflicting loads. (Count)
system.cpu.MemDepUnit__1.conflictingStores            0                       # Number of conflicting stores. (Count)
system.cpu.MemDepUnit__2.insertedLoads              0                       # Number of loads inserted to the mem dependence unit. (Count)
system.cpu.MemDepUnit__2.insertedStores             0                       # Number of stores inserted to the mem dependence unit. (Count)
system.cpu.MemDepUnit__2.conflictingLoads            0                       # Number of conflicting loads. (Count)
system.cpu.MemDepUnit__2.conflictingStores            0                       # Number of conflicting stores. (Count)
system.cpu.MemDepUnit__3.insertedLoads              0                       # Number of loads inserted to the mem dependence unit. (Count)
system.cpu.MemDepUnit__3.insertedStores             0                       # Number of stores inserted to the mem dependence unit. (Count)
system.cpu.MemDepUnit__3.conflictingLoads            0                       # Number of conflicting loads. (Count)
system.cpu.MemDepUnit__3.conflictingStores            0                       # Number of conflicting stores. (Count)
system.cpu.branchPred.lookups                16995018                       # Number of BP lookups (Count)
system.cpu.branchPred.condPredicted           7205042                       # Number of conditional branches predicted (Count)
system.cpu.branchPred.condIncorrect            147820                       # Number of conditional branches incorrect (Count)
[...]
system.mem_ctrl.rdPerTurnAround::14                21      3.27%      5.29% # Reads before turning the bus around for writes (Count)
system.mem_ctrl.rdPerTurnAround::15               241     37.48%     42.77% # Reads before turning the bus around for writes (Count)
system.mem_ctrl.rdPerTurnAround::16               248     38.57%     81.34% # Reads before turning the bus around for writes (Count)
system.mem_ctrl.rdPerTurnAround::17                98     15.24%     96.58% # Reads before turning the bus around for writes (Count)
system.mem_ctrl.rdPerTurnAround::18                17      2.64%     99.22% # Reads before turning the bus around for writes (Count)
system.mem_ctrl.rdPerTurnAround::19                 4      0.62%     99.84% # Reads before turning the bus around for writes (Count)
system.mem_ctrl.rdPerTurnAround::21                 1      0.16%    100.00% # Reads before turning the bus around for writes (Count)
system.mem_ctrl.rdPerTurnAround::total            643                       # Reads before turning the bus around for writes (Count)
system.mem_ctrl.wrPerTurnAround::samples          643                       # Writes before turning the bus around for reads (Count)
system.mem_ctrl.wrPerTurnAround::mean       16.381026                       # Writes before turning the bus around for reads (Count)
system.mem_ctrl.wrPerTurnAround::gmean      16.357282                       # Writes before turning the bus around for reads (Count)
system.mem_ctrl.wrPerTurnAround::stdev       0.916828                       # Writes before turning the bus around for reads (Count)
system.mem_ctrl.wrPerTurnAround::16               542     84.29%     84.29% # Writes before turning the bus around for reads (Count)
system.mem_ctrl.wrPerTurnAround::17                 4      0.62%     84.91% # Writes before turning the bus around for reads (Count)
system.mem_ctrl.wrPerTurnAround::18                53      8.24%     93.16% # Writes before turning the bus around for reads (Count)
system.mem_ctrl.wrPerTurnAround::19                41      6.38%     99.53% # Writes before turning the bus around for reads (Count)
system.mem_ctrl.wrPerTurnAround::20                 3      0.47%    100.00% # Writes before turning the bus around for reads (Count)
system.mem_ctrl.wrPerTurnAround::total            643                       # Writes before turning the bus around for reads (Count)
system.mem_ctrl.bytesReadWrQ                  5441728                       # Total number of bytes read from write queue (Byte)
system.mem_ctrl.bytesReadSys                  6088768                       # Total read bytes from the system interface side (Byte)
system.mem_ctrl.bytesWrittenSys               6088768                       # Total written bytes from the system interface side (Byte)
system.mem_ctrl.avgRdBWSys               1320752195.84232450                       # Average system read bandwidth in Byte/s ((Byte/Second))
system.mem_ctrl.avgWrBWSys               1320752195.84232450                       # Average system write bandwidth in Byte/s ((Byte/Second))
system.mem_ctrl.totGap                     4610091000                       # Total gap between requests (Tick)
system.mem_ctrl.avgGap                       24228.70                       # Average gap between requests ((Tick/Count))
system.mem_ctrl.requestorReadBytes::caches.controllers1       647040                       # Per-requestor bytes read from memory (Byte)
system.mem_ctrl.requestorWriteBytes::caches.controllers1       674112                       # Per-requestor bytes write to memory (Byte)
system.mem_ctrl.requestorReadRate::caches.controllers1 140353434.520385324955                       # Per-requestor bytes read from memory rate ((Byte/Second))
system.mem_ctrl.requestorWriteRate::caches.controllers1 146225788.902395516634                       # Per-requestor bytes write to memory rate ((Byte/Second))
system.mem_ctrl.requestorReadAccesses::caches.controllers1        95137                       # Per-requestor read serviced memory accesses (Count)
system.mem_ctrl.requestorWriteAccesses::caches.controllers1        95137                       # Per-requestor write serviced memory accesses (Count)
system.mem_ctrl.requestorReadTotalLat::caches.controllers1    331153500                       # Per-requestor read total memory access latency (Tick)
system.mem_ctrl.requestorWriteTotalLat::caches.controllers1 117026782250                       # Per-requestor write total memory access latency (Tick)
system.mem_ctrl.requestorReadAvgLat::caches.controllers1      3480.81                       # Per-requestor read average memory access latency ((Tick/Count))
system.mem_ctrl.requestorWriteAvgLat::caches.controllers1   1230086.95                       # Per-requestor write average memory access latency ((Tick/Count))
system.mem_ctrl.dram.bytesRead::caches.controllers1      6088704                       # Number of bytes read from this memory (Byte)
system.mem_ctrl.dram.bytesRead::total         6088704                       # Number of bytes read from this memory (Byte)
system.mem_ctrl.dram.bytesWritten::caches.controllers1      6088768                       # Number of bytes written to this memory (Byte)
system.mem_ctrl.dram.bytesWritten::total      6088768                       # Number of bytes written to this memory (Byte)
system.mem_ctrl.dram.numReads::caches.controllers1        95136                       # Number of read requests responded to by this memory (Count)
system.mem_ctrl.dram.numReads::total            95136                       # Number of read requests responded to by this memory (Count)
system.mem_ctrl.dram.numWrites::caches.controllers1        95137                       # Number of write requests responded to by this memory (Count)
system.mem_ctrl.dram.numWrites::total           95137                       # Number of write requests responded to by this memory (Count)
system.mem_ctrl.dram.bwRead::caches.controllers1   1320738313                       # Total read bandwidth from this memory ((Byte/Second))
system.mem_ctrl.dram.bwRead::total         1320738313                       # Total read bandwidth from this memory ((Byte/Second))
system.mem_ctrl.dram.bwWrite::caches.controllers1   1320752196                       # Write bandwidth from this memory ((Byte/Second))
system.mem_ctrl.dram.bwWrite::total        1320752196                       # Write bandwidth from this memory ((Byte/Second))
system.mem_ctrl.dram.bwTotal::caches.controllers1   2641490509                       # Total bandwidth to/from this memory ((Byte/Second))
system.mem_ctrl.dram.bwTotal::total        2641490509                       # Total bandwidth to/from this memory ((Byte/Second))
system.mem_ctrl.dram.readBursts                 10110                       # Number of DRAM read bursts (Count)
system.mem_ctrl.dram.writeBursts                10533                       # Number of DRAM write bursts (Count)
system.mem_ctrl.dram.perBankRdBursts::0           520                       # Per bank write bursts (Count)
system.mem_ctrl.dram.perBankRdBursts::1           575                       # Per bank write bursts (Count)
system.mem_ctrl.dram.perBankRdBursts::2           704                       # Per bank write bursts (Count)
system.mem_ctrl.dram.perBankRdBursts::3           681                       # Per bank write bursts (Count)
system.mem_ctrl.dram.perBankRdBursts::4           658                       # Per bank write bursts (Count)
system.mem_ctrl.dram.perBankRdBursts::5           580                       # Per bank write bursts (Count)
system.mem_ctrl.dram.perBankRdBursts::6           569                       # Per bank write bursts (Count)
system.mem_ctrl.dram.perBankRdBursts::7           691                       # Per bank write bursts (Count)
system.mem_ctrl.dram.perBankRdBursts::8           520                       # Per bank write bursts (Count)
system.mem_ctrl.dram.perBankRdBursts::9           613                       # Per bank write bursts (Count)
system.mem_ctrl.dram.perBankRdBursts::10          625                       # Per bank write bursts (Count)
system.mem_ctrl.dram.perBankRdBursts::11          579                       # Per bank write bursts (Count)
system.mem_ctrl.dram.perBankRdBursts::12          731                       # Per bank write bursts (Count)
system.mem_ctrl.dram.perBankRdBursts::13          789                       # Per bank write bursts (Count)
system.mem_ctrl.dram.perBankRdBursts::14          708                       # Per bank write bursts (Count)
system.mem_ctrl.dram.perBankRdBursts::15          567                       # Per bank write bursts (Count)
system.mem_ctrl.dram.perBankWrBursts::0           520                       # Per bank write bursts (Count)
system.mem_ctrl.dram.perBankWrBursts::1           575                       # Per bank write bursts (Count)
system.mem_ctrl.dram.perBankWrBursts::2           707                       # Per bank write bursts (Count)
system.mem_ctrl.dram.perBankWrBursts::3           681                       # Per bank write bursts (Count)
system.mem_ctrl.dram.perBankWrBursts::4           676                       # Per bank write bursts (Count)
system.mem_ctrl.dram.perBankWrBursts::5           580                       # Per bank write bursts (Count)
system.mem_ctrl.dram.perBankWrBursts::6           568                       # Per bank write bursts (Count)
system.mem_ctrl.dram.perBankWrBursts::7           698                       # Per bank write bursts (Count)
system.mem_ctrl.dram.perBankWrBursts::8           520                       # Per bank write bursts (Count)
system.mem_ctrl.dram.perBankWrBursts::9           617                       # Per bank write bursts (Count)
system.mem_ctrl.dram.perBankWrBursts::10          626                       # Per bank write bursts (Count)
system.mem_ctrl.dram.perBankWrBursts::11          604                       # Per bank write bursts (Count)
system.mem_ctrl.dram.perBankWrBursts::12         1068                       # Per bank write bursts (Count)
system.mem_ctrl.dram.perBankWrBursts::13          808                       # Per bank write bursts (Count)
system.mem_ctrl.dram.perBankWrBursts::14          714                       # Per bank write bursts (Count)
system.mem_ctrl.dram.perBankWrBursts::15          571                       # Per bank write bursts (Count)
system.mem_ctrl.dram.totQLat                141591000                       # Total ticks spent queuing (Tick)
system.mem_ctrl.dram.totBusLat               50550000                       # Total ticks spent in databus transfers (Tick)
system.mem_ctrl.dram.totMemAccLat           331153500                       # Total ticks spent from burst creation until serviced by the DRAM (Tick)
system.mem_ctrl.dram.avgQLat                 14005.04                       # Average queueing delay per DRAM burst ((Tick/Count))
system.mem_ctrl.dram.avgBusLat                5000.00                       # Average bus latency per DRAM burst ((Tick/Count))
system.mem_ctrl.dram.avgMemAccLat            32755.04                       # Average memory access latency per DRAM burst ((Tick/Count))
system.mem_ctrl.dram.readRowHits                 8762                       # Number of row buffer hits during reads (Count)
system.mem_ctrl.dram.writeRowHits                9435                       # Number of row buffer hits during writes (Count)
system.mem_ctrl.dram.readRowHitRate             86.67                       # Row buffer hit rate for reads (Ratio)
system.mem_ctrl.dram.writeRowHitRate            89.58                       # Row buffer hit rate for writes (Ratio)
system.mem_ctrl.dram.bytesPerActivate::samples         2440                       # Bytes accessed per row activation (Byte)
system.mem_ctrl.dram.bytesPerActivate::mean   540.800000                       # Bytes accessed per row activation (Byte)
system.mem_ctrl.dram.bytesPerActivate::gmean   342.876859                       # Bytes accessed per row activation (Byte)
system.mem_ctrl.dram.bytesPerActivate::stdev   395.045515                       # Bytes accessed per row activation (Byte)
system.mem_ctrl.dram.bytesPerActivate::0-127          532     21.80%     21.80% # Bytes accessed per row activation (Byte)
system.mem_ctrl.dram.bytesPerActivate::128-255          322     13.20%     35.00% # Bytes accessed per row activation (Byte)
system.mem_ctrl.dram.bytesPerActivate::256-383          201      8.24%     43.24% # Bytes accessed per row activation (Byte)
system.mem_ctrl.dram.bytesPerActivate::384-511          140      5.74%     48.98% # Bytes accessed per row activation (Byte)
system.mem_ctrl.dram.bytesPerActivate::512-639          111      4.55%     53.52% # Bytes accessed per row activation (Byte)
system.mem_ctrl.dram.bytesPerActivate::640-767           98      4.02%     57.54% # Bytes accessed per row activation (Byte)
system.mem_ctrl.dram.bytesPerActivate::768-895          195      7.99%     65.53% # Bytes accessed per row activation (Byte)
system.mem_ctrl.dram.bytesPerActivate::896-1023          198      8.11%     73.65% # Bytes accessed per row activation (Byte)
system.mem_ctrl.dram.bytesPerActivate::1024-1151          643     26.35%    100.00% # Bytes accessed per row activation (Byte)
system.mem_ctrl.dram.bytesPerActivate::total         2440                       # Bytes accessed per row activation (Byte)
system.mem_ctrl.dram.bytesRead                 647040                       # Total number of bytes read from DRAM (Byte)
system.mem_ctrl.dram.bytesWritten              674112                       # Total number of bytes written to DRAM (Byte)
system.mem_ctrl.dram.avgRdBW               140.353435                       # Average DRAM read bandwidth in MiBytes/s ((Byte/Second))
system.mem_ctrl.dram.avgWrBW               146.225789                       # Average DRAM write bandwidth in MiBytes/s ((Byte/Second))
system.mem_ctrl.dram.peakBW                  12800.00                       # Theoretical peak bandwidth in MiByte/s ((Byte/Second))
system.mem_ctrl.dram.busUtil                     2.24                       # Data bus utilization in percentage (Ratio)
system.mem_ctrl.dram.busUtilRead                 1.10                       # Data bus utilization in percentage for reads (Ratio)
system.mem_ctrl.dram.busUtilWrite                1.14                       # Data bus utilization in percentage for writes (Ratio)
system.mem_ctrl.dram.pageHitRate                88.15                       # Row buffer hit rate, read and write combined (Ratio)
system.mem_ctrl.dram.power_state.pwrStateResidencyTicks::UNDEFINED   4610076000                       # Cumulative time (in ticks) in various power states (Tick)
system.mem_ctrl.dram.rank0.actEnergy          7189980                       # Energy for activate commands per rank (pJ) (Joule)
system.mem_ctrl.dram.rank0.preEnergy          3810180                       # Energy for precharge commands per rank (pJ) (Joule)
system.mem_ctrl.dram.rank0.readEnergy        35542920                       # Energy for read commands per rank (pJ) (Joule)
system.mem_ctrl.dram.rank0.writeEnergy       26126100                       # Energy for write commands per rank (pJ) (Joule)
system.mem_ctrl.dram.rank0.refreshEnergy 363866880.000000                       # Energy for refresh commands per rank (pJ) (Joule)
system.mem_ctrl.dram.rank0.actBackEnergy   1086701010                       # Energy for active background per rank (pJ) (Joule)
system.mem_ctrl.dram.rank0.preBackEnergy    855152160                       # Energy for precharge background per rank (pJ) (Joule)
system.mem_ctrl.dram.rank0.actPowerDownEnergy            0                       # Energy for active power-down per rank (pJ) (Joule)
system.mem_ctrl.dram.rank0.prePowerDownEnergy            0                       # Energy for precharge power-down per rank (pJ) (Joule)
system.mem_ctrl.dram.rank0.selfRefreshEnergy            0                       # Energy for self refresh per rank (pJ) (Joule)
system.mem_ctrl.dram.rank0.totalEnergy     2378389230                       # Total energy per rank (pJ) (Joule)
system.mem_ctrl.dram.rank0.averagePower    515.911067                       # Core power per rank (mW) (Watt)
system.mem_ctrl.dram.rank0.totalIdleTime            0                       # Total Idle time Per DRAM Rank (Tick)
system.mem_ctrl.dram.rank0.pwrStateTime::IDLE   2211548250                       # Time in different power states (Tick)
system.mem_ctrl.dram.rank0.pwrStateTime::REF    153920000                       # Time in different power states (Tick)
system.mem_ctrl.dram.rank0.pwrStateTime::SREF            0                       # Time in different power states (Tick)
system.mem_ctrl.dram.rank0.pwrStateTime::PRE_PDN            0                       # Time in different power states (Tick)
system.mem_ctrl.dram.rank0.pwrStateTime::ACT   2244607750                       # Time in different power states (Tick)
system.mem_ctrl.dram.rank0.pwrStateTime::ACT_PDN            0                       # Time in different power states (Tick)
system.mem_ctrl.dram.rank1.actEnergy         10274460                       # Energy for activate commands per rank (pJ) (Joule)
system.mem_ctrl.dram.rank1.preEnergy          5449620                       # Energy for precharge commands per rank (pJ) (Joule)
system.mem_ctrl.dram.rank1.readEnergy        36642480                       # Energy for read commands per rank (pJ) (Joule)
system.mem_ctrl.dram.rank1.writeEnergy       28856160                       # Energy for write commands per rank (pJ) (Joule)
system.mem_ctrl.dram.rank1.refreshEnergy 363866880.000000                       # Energy for refresh commands per rank (pJ) (Joule)
system.mem_ctrl.dram.rank1.actBackEnergy   1334972490                       # Energy for active background per rank (pJ) (Joule)
system.mem_ctrl.dram.rank1.preBackEnergy    646081440                       # Energy for precharge background per rank (pJ) (Joule)
system.mem_ctrl.dram.rank1.actPowerDownEnergy            0                       # Energy for active power-down per rank (pJ) (Joule)
system.mem_ctrl.dram.rank1.prePowerDownEnergy            0                       # Energy for precharge power-down per rank (pJ) (Joule)
system.mem_ctrl.dram.rank1.selfRefreshEnergy            0                       # Energy for self refresh per rank (pJ) (Joule)
system.mem_ctrl.dram.rank1.totalEnergy     2426143530                       # Total energy per rank (pJ) (Joule)
system.mem_ctrl.dram.rank1.averagePower    526.269747                       # Core power per rank (mW) (Watt)
system.mem_ctrl.dram.rank1.totalIdleTime            0                       # Total Idle time Per DRAM Rank (Tick)
system.mem_ctrl.dram.rank1.pwrStateTime::IDLE   1666476250                       # Time in different power states (Tick)
system.mem_ctrl.dram.rank1.pwrStateTime::REF    153920000                       # Time in different power states (Tick)
system.mem_ctrl.dram.rank1.pwrStateTime::SREF            0                       # Time in different power states (Tick)
system.mem_ctrl.dram.rank1.pwrStateTime::PRE_PDN            0                       # Time in different power states (Tick)
system.mem_ctrl.dram.rank1.pwrStateTime::ACT   2789679750                       # Time in different power states (Tick)
system.mem_ctrl.dram.rank1.pwrStateTime::ACT_PDN            0                       # Time in different power states (Tick)
system.mem_ctrl.power_state.pwrStateResidencyTicks::UNDEFINED   4610076000                       # Cumulative time (in ticks) in various power states (Tick)
system.workload.inst.arm                            0                       # number of arm instructions executed (Count)
system.workload.inst.quiesce                        0                       # number of quiesce instructions executed (Count)

---------- End Simulation Statistics   ----------
