
---------- Begin Simulation Statistics ----------
simSeconds                                   0.000221                       # Number of seconds simulated (Second)
simTicks                                    220619000                       # Number of ticks simulated (Tick)
finalTick                                   220619000                       # Number of ticks from beginning of simulation (restored from checkpoints and never reset) (Tick)
simFreq                                  1000000000000                       # The number of ticks per simulated second ((Tick/Second))
hostSeconds                                      0.88                       # Real time elapsed on the host (Second)
hostTickRate                                251607630                       # The number of ticks simulated per host second (ticks/s) ((Tick/Second))
hostMemory                                     750156                       # Number of bytes of host memory used (Byte)
simInsts                                       123064                       # Number of instructions simulated (Count)
simOps                                         227381                       # Number of ops (including micro ops) simulated (Count)
hostInstRate                                   140334                       # Simulator instruction rate (inst/s) ((Count/Second))
hostOpRate                                     259289                       # Simulator op (including micro ops) rate (op/s) ((Count/Second))
system.caches.delayHistogram::bucket_size            1                       # delay histogram for all message (Unspecified)
system.caches.delayHistogram::max_bucket            9                       # delay histogram for all message (Unspecified)
system.caches.delayHistogram::samples            6484                       # delay histogram for all message (Unspecified)
system.caches.delayHistogram::mean           0.072486                       # delay histogram for all message (Unspecified)
system.caches.delayHistogram::stdev          0.651761                       # delay histogram for all message (Unspecified)
system.caches.delayHistogram             |        6391     98.57%     98.57% |           0      0.00%     98.57% |          17      0.26%     98.83% |           0      0.00%     98.83% |          33      0.51%     99.34% |           0      0.00%     99.34% |          20      0.31%     99.65% |           0      0.00%     99.65% |          23      0.35%    100.00% |           0      0.00%    100.00% # delay histogram for all message (Unspecified)
system.caches.delayHistogram::total              6484                       # delay histogram for all message (Unspecified)
system.caches.m_outstandReqHistSeqr::bucket_size            2                       (Unspecified)
system.caches.m_outstandReqHistSeqr::max_bucket           19                       (Unspecified)
system.caches.m_outstandReqHistSeqr::samples        69876                       (Unspecified)
system.caches.m_outstandReqHistSeqr::mean     2.693872                       (Unspecified)
system.caches.m_outstandReqHistSeqr::gmean     1.941852                       (Unspecified)
system.caches.m_outstandReqHistSeqr::stdev     2.897388                       (Unspecified)
system.caches.m_outstandReqHistSeqr      |       30028     42.97%     42.97% |       27242     38.99%     81.96% |        6266      8.97%     90.93% |        1474      2.11%     93.04% |         998      1.43%     94.46% |        1319      1.89%     96.35% |        1009      1.44%     97.80% |         741      1.06%     98.86% |         799      1.14%    100.00% |           0      0.00%    100.00% (Unspecified)
system.caches.m_outstandReqHistSeqr::total        69876                       (Unspecified)
system.caches.m_latencyHistSeqr::bucket_size           64                       (Unspecified)
system.caches.m_latencyHistSeqr::max_bucket          639                       (Unspecified)
system.caches.m_latencyHistSeqr::samples        69969                       (Unspecified)
system.caches.m_latencyHistSeqr::mean        4.677757                       (Unspecified)
system.caches.m_latencyHistSeqr::gmean       1.237279                       (Unspecified)
system.caches.m_latencyHistSeqr::stdev      18.311486                       (Unspecified)
system.caches.m_latencyHistSeqr          |       68692     98.17%     98.17% |         943      1.35%     99.52% |         276      0.39%     99.92% |          16      0.02%     99.94% |          22      0.03%     99.97% |          20      0.03%    100.00% |           0      0.00%    100.00% |           0      0.00%    100.00% |           0      0.00%    100.00% |           0      0.00%    100.00% (Unspecified)
system.caches.m_latencyHistSeqr::total          69969                       (Unspecified)
system.caches.m_hitLatencyHistSeqr::bucket_size           16                       (Unspecified)
system.caches.m_hitLatencyHistSeqr::max_bucket          159                       (Unspecified)
system.caches.m_hitLatencyHistSeqr::samples        66472                       (Unspecified)
system.caches.m_hitLatencyHistSeqr::mean     1.013825                       (Unspecified)
system.caches.m_hitLatencyHistSeqr::gmean     1.001808                       (Unspecified)
system.caches.m_hitLatencyHistSeqr::stdev     0.981515                       (Unspecified)
system.caches.m_hitLatencyHistSeqr       |       66457     99.98%     99.98% |           5      0.01%     99.98% |           2      0.00%     99.99% |           3      0.00%     99.99% |           1      0.00%     99.99% |           3      0.00%    100.00% |           0      0.00%    100.00% |           0      0.00%    100.00% |           0      0.00%    100.00% |           1      0.00%    100.00% (Unspecified)
system.caches.m_hitLatencyHistSeqr::total        66472                       (Unspecified)
system.caches.m_missLatencyHistSeqr::bucket_size           64                       (Unspecified)
system.caches.m_missLatencyHistSeqr::max_bucket          639                       (Unspecified)
system.caches.m_missLatencyHistSeqr::samples         3497                       (Unspecified)
system.caches.m_missLatencyHistSeqr::mean    74.322848                       (Unspecified)
system.caches.m_missLatencyHistSeqr::gmean    68.423774                       (Unspecified)
system.caches.m_missLatencyHistSeqr::stdev    39.817377                       (Unspecified)
system.caches.m_missLatencyHistSeqr      |        2225     63.63%     63.63% |         939     26.85%     90.48% |         275      7.86%     98.34% |          16      0.46%     98.80% |          22      0.63%     99.43% |          20      0.57%    100.00% |           0      0.00%    100.00% |           0      0.00%    100.00% |           0      0.00%    100.00% |           0      0.00%    100.00% (Unspecified)
system.caches.m_missLatencyHistSeqr::total         3497                       (Unspecified)
system.caches.delayVCHist.vnet_1::bucket_size            1                       # delay histogram for vnet_1 (Unspecified)
system.caches.delayVCHist.vnet_1::max_bucket            9                       # delay histogram for vnet_1 (Unspecified)
system.caches.delayVCHist.vnet_1::samples         3497                       # delay histogram for vnet_1 (Unspecified)
system.caches.delayVCHist.vnet_1::mean       0.002288                       # delay histogram for vnet_1 (Unspecified)
system.caches.delayVCHist.vnet_1::stdev      0.106941                       # delay histogram for vnet_1 (Unspecified)
system.caches.delayVCHist.vnet_1         |        3495     99.94%     99.94% |           0      0.00%     99.94% |           1      0.03%     99.97% |           0      0.00%     99.97% |           0      0.00%     99.97% |           0      0.00%     99.97% |           1      0.03%    100.00% |           0      0.00%    100.00% |           0      0.00%    100.00% |           0      0.00%    100.00% # delay histogram for vnet_1 (Unspecified)
system.caches.delayVCHist.vnet_1::total          3497                       # delay histogram for vnet_1 (Unspecified)
system.caches.delayVCHist.vnet_2::bucket_size            1                       # delay histogram for vnet_2 (Unspecified)
system.caches.delayVCHist.vnet_2::max_bucket            9                       # delay histogram for vnet_2 (Unspecified)
system.caches.delayVCHist.vnet_2::samples         2987                       # delay histogram for vnet_2 (Unspecified)
system.caches.delayVCHist.vnet_2::mean       0.154670                       # delay histogram for vnet_2 (Unspecified)
system.caches.delayVCHist.vnet_2::stdev      0.946765                       # delay histogram for vnet_2 (Unspecified)
system.caches.delayVCHist.vnet_2         |        2896     96.95%     96.95% |           0      0.00%     96.95% |          16      0.54%     97.49% |           0      0.00%     97.49% |          33      1.10%     98.59% |           0      0.00%     98.59% |          19      0.64%     99.23% |           0      0.00%     99.23% |          23      0.77%    100.00% |           0      0.00%    100.00% # delay histogram for vnet_2 (Unspecified)
system.caches.delayVCHist.vnet_2::total          2987                       # delay histogram for vnet_2 (Unspecified)
system.caches.L1Cache_Controller.Load           30196      0.00%      0.00% (Unspecified)
system.caches.L1Cache_Controller.Ifetch         24900      0.00%      0.00% (Unspecified)
system.caches.L1Cache_Controller.Store          14875      0.00%      0.00% (Unspecified)
system.caches.L1Cache_Controller.Data            3497      0.00%      0.00% (Unspecified)
system.caches.L1Cache_Controller.Replacement         2987      0.00%      0.00% (Unspecified)
system.caches.L1Cache_Controller.Writeback_Ack         2987      0.00%      0.00% (Unspecified)
system.caches.L1Cache_Controller.I.Load          1751      0.00%      0.00% (Unspecified)
system.caches.L1Cache_Controller.I.Ifetch         1180      0.00%      0.00% (Unspecified)
system.caches.L1Cache_Controller.I.Store          568      0.00%      0.00% (Unspecified)
system.caches.L1Cache_Controller.M.Load         28445      0.00%      0.00% (Unspecified)
system.caches.L1Cache_Controller.M.Ifetch        23720      0.00%      0.00% (Unspecified)
system.caches.L1Cache_Controller.M.Store        14307      0.00%      0.00% (Unspecified)
system.caches.L1Cache_Controller.M.Replacement         2987      0.00%      0.00% (Unspecified)
system.caches.L1Cache_Controller.MI.Writeback_Ack         2987      0.00%      0.00% (Unspecified)
system.caches.L1Cache_Controller.IS.Data         2929      0.00%      0.00% (Unspecified)
system.caches.L1Cache_Controller.IM.Data          568      0.00%      0.00% (Unspecified)
system.caches.Directory_Controller.GETX          3499      0.00%      0.00% (Unspecified)
system.caches.Directory_Controller.PUTX          2987      0.00%      0.00% (Unspecified)
system.caches.Directory_Controller.Memory_Data         3497      0.00%      0.00% (Unspecified)
system.caches.Directory_Controller.Memory_Ack         2987      0.00%      0.00% (Unspecified)
system.caches.Directory_Controller.I.GETX         3499      0.00%      0.00% (Unspecified)
system.caches.Directory_Controller.M.PUTX         2987      0.00%      0.00% (Unspecified)
system.caches.Directory_Controller.IM.Memory_Data         3497      0.00%      0.00% (Unspecified)
system.caches.Directory_Controller.MI.Memory_Ack         2987      0.00%      0.00% (Unspecified)
system.caches.MachineType.Directory.miss_mach_latency_hist_seqr::bucket_size           64                       (Unspecified)
system.caches.MachineType.Directory.miss_mach_latency_hist_seqr::max_bucket          639                       (Unspecified)
system.caches.MachineType.Directory.miss_mach_latency_hist_seqr::samples         3497                       (Unspecified)
system.caches.MachineType.Directory.miss_mach_latency_hist_seqr::mean    74.322848                       (Unspecified)
system.caches.MachineType.Directory.miss_mach_latency_hist_seqr::gmean    68.423774                       (Unspecified)
system.caches.MachineType.Directory.miss_mach_latency_hist_seqr::stdev    39.817377                       (Unspecified)
system.caches.MachineType.Directory.miss_mach_latency_hist_seqr |        2225     63.63%     63.63% |         939     26.85%     90.48% |         275      7.86%     98.34% |          16      0.46%     98.80% |          22      0.63%     99.43% |          20      0.57%    100.00% |           0      0.00%    100.00% |           0      0.00%    100.00% |           0      0.00%    100.00% |           0      0.00%    100.00% (Unspecified)
system.caches.MachineType.Directory.miss_mach_latency_hist_seqr::total         3497                       (Unspecified)
system.caches.MachineType.Directory.miss_latency_hist_seqr.issue_to_initial_request::bucket_size            1                       (Unspecified)
system.caches.MachineType.Directory.miss_latency_hist_seqr.issue_to_initial_request::max_bucket            9                       (Unspecified)
system.caches.MachineType.Directory.miss_latency_hist_seqr.issue_to_initial_request::samples            1                       (Unspecified)
system.caches.MachineType.Directory.miss_latency_hist_seqr.issue_to_initial_request::stdev          nan                       (Unspecified)
system.caches.MachineType.Directory.miss_latency_hist_seqr.issue_to_initial_request |           1    100.00%    100.00% |           0      0.00%    100.00% |           0      0.00%    100.00% |           0      0.00%    100.00% |           0      0.00%    100.00% |           0      0.00%    100.00% |           0      0.00%    100.00% |           0      0.00%    100.00% |           0      0.00%    100.00% |           0      0.00%    100.00% (Unspecified)
system.caches.MachineType.Directory.miss_latency_hist_seqr.issue_to_initial_request::total            1                       (Unspecified)
system.caches.MachineType.Directory.miss_latency_hist_seqr.initial_to_forward::bucket_size            1                       (Unspecified)
system.caches.MachineType.Directory.miss_latency_hist_seqr.initial_to_forward::max_bucket            9                       (Unspecified)
system.caches.MachineType.Directory.miss_latency_hist_seqr.initial_to_forward::samples            1                       (Unspecified)
system.caches.MachineType.Directory.miss_latency_hist_seqr.initial_to_forward::stdev          nan                       (Unspecified)
system.caches.MachineType.Directory.miss_latency_hist_seqr.initial_to_forward |           1    100.00%    100.00% |           0      0.00%    100.00% |           0      0.00%    100.00% |           0      0.00%    100.00% |           0      0.00%    100.00% |           0      0.00%    100.00% |           0      0.00%    100.00% |           0      0.00%    100.00% |           0      0.00%    100.00% |           0      0.00%    100.00% (Unspecified)
system.caches.MachineType.Directory.miss_latency_hist_seqr.initial_to_forward::total            1                       (Unspecified)
system.caches.MachineType.Directory.miss_latency_hist_seqr.forward_to_first_response::bucket_size            1                       (Unspecified)
system.caches.MachineType.Directory.miss_latency_hist_seqr.forward_to_first_response::max_bucket            9                       (Unspecified)
system.caches.MachineType.Directory.miss_latency_hist_seqr.forward_to_first_response::samples            1                       (Unspecified)
system.caches.MachineType.Directory.miss_latency_hist_seqr.forward_to_first_response::stdev          nan                       (Unspecified)
system.caches.MachineType.Directory.miss_latency_hist_seqr.forward_to_first_response |           1    100.00%    100.00% |           0      0.00%    100.00% |           0      0.00%    100.00% |           0      0.00%    100.00% |           0      0.00%    100.00% |           0      0.00%    100.00% |           0      0.00%    100.00% |           0      0.00%    100.00% |           0      0.00%    100.00% |           0      0.00%    100.00% (Unspecified)
system.caches.MachineType.Directory.miss_latency_hist_seqr.forward_to_first_response::total            1                       (Unspecified)
system.caches.MachineType.Directory.miss_latency_hist_seqr.first_response_to_completion::bucket_size            8                       (Unspecified)
system.caches.MachineType.Directory.miss_latency_hist_seqr.first_response_to_completion::max_bucket           79                       (Unspecified)
system.caches.MachineType.Directory.miss_latency_hist_seqr.first_response_to_completion::samples            1                       (Unspecified)
system.caches.MachineType.Directory.miss_latency_hist_seqr.first_response_to_completion::mean           73                       (Unspecified)
system.caches.MachineType.Directory.miss_latency_hist_seqr.first_response_to_completion::gmean    73.000000                       (Unspecified)
system.caches.MachineType.Directory.miss_latency_hist_seqr.first_response_to_completion::stdev          nan                       (Unspecified)
system.caches.MachineType.Directory.miss_latency_hist_seqr.first_response_to_completion |           0      0.00%      0.00% |           0      0.00%      0.00% |           0      0.00%      0.00% |           0      0.00%      0.00% |           0      0.00%      0.00% |           0      0.00%      0.00% |           0      0.00%      0.00% |           0      0.00%      0.00% |           0      0.00%      0.00% |           1    100.00%    100.00% (Unspecified)
system.caches.MachineType.Directory.miss_latency_hist_seqr.first_response_to_completion::total            1                       (Unspecified)
system.caches.MachineType.Directory.incomplete_times_seqr         3496                       (Unspecified)
system.caches.RequestType.LD.latency_hist_seqr::bucket_size           64                       (Unspecified)
system.caches.RequestType.LD.latency_hist_seqr::max_bucket          639                       (Unspecified)
system.caches.RequestType.LD.latency_hist_seqr::samples        30195                       (Unspecified)
system.caches.RequestType.LD.latency_hist_seqr::mean     5.425931                       (Unspecified)
system.caches.RequestType.LD.latency_hist_seqr::gmean     1.280874                       (Unspecified)
system.caches.RequestType.LD.latency_hist_seqr::stdev    20.378643                       (Unspecified)
system.caches.RequestType.LD.latency_hist_seqr |       29446     97.52%     97.52% |         558      1.85%     99.37% |         161      0.53%     99.90% |          10      0.03%     99.93% |           8      0.03%     99.96% |          12      0.04%    100.00% |           0      0.00%    100.00% |           0      0.00%    100.00% |           0      0.00%    100.00% |           0      0.00%    100.00% (Unspecified)
system.caches.RequestType.LD.latency_hist_seqr::total        30195                       (Unspecified)
system.caches.RequestType.LD.hit_latency_hist_seqr::bucket_size           16                       (Unspecified)
system.caches.RequestType.LD.hit_latency_hist_seqr::max_bucket          159                       (Unspecified)
system.caches.RequestType.LD.hit_latency_hist_seqr::samples        28445                       (Unspecified)
system.caches.RequestType.LD.hit_latency_hist_seqr::mean     1.007699                       (Unspecified)
system.caches.RequestType.LD.hit_latency_hist_seqr::gmean     1.000579                       (Unspecified)
system.caches.RequestType.LD.hit_latency_hist_seqr::stdev     0.914487                       (Unspecified)
system.caches.RequestType.LD.hit_latency_hist_seqr |       28441     99.99%     99.99% |           3      0.01%    100.00% |           0      0.00%    100.00% |           0      0.00%    100.00% |           0      0.00%    100.00% |           0      0.00%    100.00% |           0      0.00%    100.00% |           0      0.00%    100.00% |           0      0.00%    100.00% |           1      0.00%    100.00% (Unspecified)
system.caches.RequestType.LD.hit_latency_hist_seqr::total        28445                       (Unspecified)
system.caches.RequestType.LD.miss_latency_hist_seqr::bucket_size           64                       (Unspecified)
system.caches.RequestType.LD.miss_latency_hist_seqr::max_bucket          639                       (Unspecified)
system.caches.RequestType.LD.miss_latency_hist_seqr::samples         1750                       (Unspecified)
system.caches.RequestType.LD.miss_latency_hist_seqr::mean    77.241143                       (Unspecified)
system.caches.RequestType.LD.miss_latency_hist_seqr::gmean    70.934533                       (Unspecified)
system.caches.RequestType.LD.miss_latency_hist_seqr::stdev    40.962479                       (Unspecified)
system.caches.RequestType.LD.miss_latency_hist_seqr |        1002     57.26%     57.26% |         558     31.89%     89.14% |         160      9.14%     98.29% |          10      0.57%     98.86% |           8      0.46%     99.31% |          12      0.69%    100.00% |           0      0.00%    100.00% |           0      0.00%    100.00% |           0      0.00%    100.00% |           0      0.00%    100.00% (Unspecified)
system.caches.RequestType.LD.miss_latency_hist_seqr::total         1750                       (Unspecified)
system.caches.RequestType.ST.latency_hist_seqr::bucket_size           64                       (Unspecified)
system.caches.RequestType.ST.latency_hist_seqr::max_bucket          639                       (Unspecified)
system.caches.RequestType.ST.latency_hist_seqr::samples        14447                       (Unspecified)
system.caches.RequestType.ST.latency_hist_seqr::mean     3.795113                       (Unspecified)
system.caches.RequestType.ST.latency_hist_seqr::gmean     1.181820                       (Unspecified)
system.caches.RequestType.ST.latency_hist_seqr::stdev    16.142861                       (Unspecified)
system.caches.RequestType.ST.latency_hist_seqr |       14286     98.89%     98.89% |         109      0.75%     99.64% |          40      0.28%     99.92% |           3      0.02%     99.94% |           5      0.03%     99.97% |           4      0.03%    100.00% |           0      0.00%    100.00% |           0      0.00%    100.00% |           0      0.00%    100.00% |           0      0.00%    100.00% (Unspecified)
system.caches.RequestType.ST.latency_hist_seqr::total        14447                       (Unspecified)
system.caches.RequestType.ST.hit_latency_hist_seqr::bucket_size           16                       (Unspecified)
system.caches.RequestType.ST.hit_latency_hist_seqr::max_bucket          159                       (Unspecified)
system.caches.RequestType.ST.hit_latency_hist_seqr::samples        13895                       (Unspecified)
system.caches.RequestType.ST.hit_latency_hist_seqr::mean     1.035193                       (Unspecified)
system.caches.RequestType.ST.hit_latency_hist_seqr::gmean     1.006478                       (Unspecified)
system.caches.RequestType.ST.hit_latency_hist_seqr::stdev     1.305054                       (Unspecified)
system.caches.RequestType.ST.hit_latency_hist_seqr |       13887     99.94%     99.94% |           2      0.01%     99.96% |           1      0.01%     99.96% |           3      0.02%     99.99% |           1      0.01%     99.99% |           1      0.01%    100.00% |           0      0.00%    100.00% |           0      0.00%    100.00% |           0      0.00%    100.00% |           0      0.00%    100.00% (Unspecified)
system.caches.RequestType.ST.hit_latency_hist_seqr::total        13895                       (Unspecified)
system.caches.RequestType.ST.miss_latency_hist_seqr::bucket_size           64                       (Unspecified)
system.caches.RequestType.ST.miss_latency_hist_seqr::max_bucket          639                       (Unspecified)
system.caches.RequestType.ST.miss_latency_hist_seqr::samples          552                       (Unspecified)
system.caches.RequestType.ST.miss_latency_hist_seqr::mean    73.268116                       (Unspecified)
system.caches.RequestType.ST.miss_latency_hist_seqr::gmean    67.334060                       (Unspecified)
system.caches.RequestType.ST.miss_latency_hist_seqr::stdev    41.974418                       (Unspecified)
system.caches.RequestType.ST.miss_latency_hist_seqr |         393     71.20%     71.20% |         107     19.38%     90.58% |          40      7.25%     97.83% |           3      0.54%     98.37% |           5      0.91%     99.28% |           4      0.72%    100.00% |           0      0.00%    100.00% |           0      0.00%    100.00% |           0      0.00%    100.00% |           0      0.00%    100.00% (Unspecified)
system.caches.RequestType.ST.miss_latency_hist_seqr::total          552                       (Unspecified)
system.caches.RequestType.IFETCH.latency_hist_seqr::bucket_size           64                       (Unspecified)
system.caches.RequestType.IFETCH.latency_hist_seqr::max_bucket          639                       (Unspecified)
system.caches.RequestType.IFETCH.latency_hist_seqr::samples        24899                       (Unspecified)
system.caches.RequestType.IFETCH.latency_hist_seqr::mean     4.285554                       (Unspecified)
system.caches.RequestType.IFETCH.latency_hist_seqr::gmean     1.218781                       (Unspecified)
system.caches.RequestType.IFETCH.latency_hist_seqr::stdev    16.753132                       (Unspecified)
system.caches.RequestType.IFETCH.latency_hist_seqr |       24543     98.57%     98.57% |         267      1.07%     99.64% |          73      0.29%     99.94% |           3      0.01%     99.95% |           9      0.04%     99.98% |           4      0.02%    100.00% |           0      0.00%    100.00% |           0      0.00%    100.00% |           0      0.00%    100.00% |           0      0.00%    100.00% (Unspecified)
system.caches.RequestType.IFETCH.latency_hist_seqr::total        24899                       (Unspecified)
system.caches.RequestType.IFETCH.hit_latency_hist_seqr::bucket_size            1                       (Unspecified)
system.caches.RequestType.IFETCH.hit_latency_hist_seqr::max_bucket            9                       (Unspecified)
system.caches.RequestType.IFETCH.hit_latency_hist_seqr::samples        23720                       (Unspecified)
system.caches.RequestType.IFETCH.hit_latency_hist_seqr::mean            1                       (Unspecified)
system.caches.RequestType.IFETCH.hit_latency_hist_seqr::gmean            1                       (Unspecified)
system.caches.RequestType.IFETCH.hit_latency_hist_seqr |           0      0.00%      0.00% |       23720    100.00%    100.00% |           0      0.00%    100.00% |           0      0.00%    100.00% |           0      0.00%    100.00% |           0      0.00%    100.00% |           0      0.00%    100.00% |           0      0.00%    100.00% |           0      0.00%    100.00% |           0      0.00%    100.00% (Unspecified)
system.caches.RequestType.IFETCH.hit_latency_hist_seqr::total        23720                       (Unspecified)
system.caches.RequestType.IFETCH.miss_latency_hist_seqr::bucket_size           64                       (Unspecified)
system.caches.RequestType.IFETCH.miss_latency_hist_seqr::max_bucket          639                       (Unspecified)
system.caches.RequestType.IFETCH.miss_latency_hist_seqr::samples         1179                       (Unspecified)
system.caches.RequestType.IFETCH.miss_latency_hist_seqr::mean    70.386768                       (Unspecified)
system.caches.RequestType.IFETCH.miss_latency_hist_seqr::gmean    65.259643                       (Unspecified)
system.caches.RequestType.IFETCH.miss_latency_hist_seqr::stdev    36.629143                       (Unspecified)
system.caches.RequestType.IFETCH.miss_latency_hist_seqr |         823     69.80%     69.80% |         267     22.65%     92.45% |          73      6.19%     98.64% |           3      0.25%     98.90% |           9      0.76%     99.66% |           4      0.34%    100.00% |           0      0.00%    100.00% |           0      0.00%    100.00% |           0      0.00%    100.00% |           0      0.00%    100.00% (Unspecified)
system.caches.RequestType.IFETCH.miss_latency_hist_seqr::total         1179                       (Unspecified)
system.caches.RequestType.RMW_Read.latency_hist_seqr::bucket_size           32                       (Unspecified)
system.caches.RequestType.RMW_Read.latency_hist_seqr::max_bucket          319                       (Unspecified)
system.caches.RequestType.RMW_Read.latency_hist_seqr::samples          428                       (Unspecified)
system.caches.RequestType.RMW_Read.latency_hist_seqr::mean     4.504673                       (Unspecified)
system.caches.RequestType.RMW_Read.latency_hist_seqr::gmean     1.214346                       (Unspecified)
system.caches.RequestType.RMW_Read.latency_hist_seqr::stdev    17.925097                       (Unspecified)
system.caches.RequestType.RMW_Read.latency_hist_seqr |         409     95.56%     95.56% |           8      1.87%     97.43% |           9      2.10%     99.53% |           0      0.00%     99.53% |           0      0.00%     99.53% |           2      0.47%    100.00% |           0      0.00%    100.00% |           0      0.00%    100.00% |           0      0.00%    100.00% |           0      0.00%    100.00% (Unspecified)
system.caches.RequestType.RMW_Read.latency_hist_seqr::total          428                       (Unspecified)
system.caches.RequestType.RMW_Read.hit_latency_hist_seqr::bucket_size           16                       (Unspecified)
system.caches.RequestType.RMW_Read.hit_latency_hist_seqr::max_bucket          159                       (Unspecified)
system.caches.RequestType.RMW_Read.hit_latency_hist_seqr::samples          412                       (Unspecified)
system.caches.RequestType.RMW_Read.hit_latency_hist_seqr::mean     1.512136                       (Unspecified)
system.caches.RequestType.RMW_Read.hit_latency_hist_seqr::gmean     1.034288                       (Unspecified)
system.caches.RequestType.RMW_Read.hit_latency_hist_seqr::stdev     6.330504                       (Unspecified)
system.caches.RequestType.RMW_Read.hit_latency_hist_seqr |         409     99.27%     99.27% |           0      0.00%     99.27% |           1      0.24%     99.51% |           0      0.00%     99.51% |           0      0.00%     99.51% |           2      0.49%    100.00% |           0      0.00%    100.00% |           0      0.00%    100.00% |           0      0.00%    100.00% |           0      0.00%    100.00% (Unspecified)
system.caches.RequestType.RMW_Read.hit_latency_hist_seqr::total          412                       (Unspecified)
system.caches.RequestType.RMW_Read.miss_latency_hist_seqr::bucket_size           32                       (Unspecified)
system.caches.RequestType.RMW_Read.miss_latency_hist_seqr::max_bucket          319                       (Unspecified)
system.caches.RequestType.RMW_Read.miss_latency_hist_seqr::samples           16                       (Unspecified)
system.caches.RequestType.RMW_Read.miss_latency_hist_seqr::mean    81.562500                       (Unspecified)
system.caches.RequestType.RMW_Read.miss_latency_hist_seqr::gmean    75.707876                       (Unspecified)
system.caches.RequestType.RMW_Read.miss_latency_hist_seqr::stdev    38.324872                       (Unspecified)
system.caches.RequestType.RMW_Read.miss_latency_hist_seqr |           0      0.00%      0.00% |           7     43.75%     43.75% |           7     43.75%     87.50% |           0      0.00%     87.50% |           0      0.00%     87.50% |           2     12.50%    100.00% |           0      0.00%    100.00% |           0      0.00%    100.00% |           0      0.00%    100.00% |           0      0.00%    100.00% (Unspecified)
system.caches.RequestType.RMW_Read.miss_latency_hist_seqr::total           16                       (Unspecified)
system.caches.RequestTypeMachineType.LD.Directory.miss_type_mach_latency_hist_seqr::bucket_size           64                       (Unspecified)
system.caches.RequestTypeMachineType.LD.Directory.miss_type_mach_latency_hist_seqr::max_bucket          639                       (Unspecified)
system.caches.RequestTypeMachineType.LD.Directory.miss_type_mach_latency_hist_seqr::samples         1750                       (Unspecified)
system.caches.RequestTypeMachineType.LD.Directory.miss_type_mach_latency_hist_seqr::mean    77.241143                       (Unspecified)
system.caches.RequestTypeMachineType.LD.Directory.miss_type_mach_latency_hist_seqr::gmean    70.934533                       (Unspecified)
system.caches.RequestTypeMachineType.LD.Directory.miss_type_mach_latency_hist_seqr::stdev    40.962479                       (Unspecified)
system.caches.RequestTypeMachineType.LD.Directory.miss_type_mach_latency_hist_seqr |        1002     57.26%     57.26% |         558     31.89%     89.14% |         160      9.14%     98.29% |          10      0.57%     98.86% |           8      0.46%     99.31% |          12      0.69%    100.00% |           0      0.00%    100.00% |           0      0.00%    100.00% |           0      0.00%    100.00% |           0      0.00%    100.00% (Unspecified)
system.caches.RequestTypeMachineType.LD.Directory.miss_type_mach_latency_hist_seqr::total         1750                       (Unspecified)
system.caches.RequestTypeMachineType.ST.Directory.miss_type_mach_latency_hist_seqr::bucket_size           64                       (Unspecified)
system.caches.RequestTypeMachineType.ST.Directory.miss_type_mach_latency_hist_seqr::max_bucket          639                       (Unspecified)
system.caches.RequestTypeMachineType.ST.Directory.miss_type_mach_latency_hist_seqr::samples          552                       (Unspecified)
system.caches.RequestTypeMachineType.ST.Directory.miss_type_mach_latency_hist_seqr::mean    73.268116                       (Unspecified)
system.caches.RequestTypeMachineType.ST.Directory.miss_type_mach_latency_hist_seqr::gmean    67.334060                       (Unspecified)
system.caches.RequestTypeMachineType.ST.Directory.miss_type_mach_latency_hist_seqr::stdev    41.974418                       (Unspecified)
system.caches.RequestTypeMachineType.ST.Directory.miss_type_mach_latency_hist_seqr |         393     71.20%     71.20% |         107     19.38%     90.58% |          40      7.25%     97.83% |           3      0.54%     98.37% |           5      0.91%     99.28% |           4      0.72%    100.00% |           0      0.00%    100.00% |           0      0.00%    100.00% |           0      0.00%    100.00% |           0      0.00%    100.00% (Unspecified)
system.caches.RequestTypeMachineType.ST.Directory.miss_type_mach_latency_hist_seqr::total          552                       (Unspecified)
system.caches.RequestTypeMachineType.IFETCH.Directory.miss_type_mach_latency_hist_seqr::bucket_size           64                       (Unspecified)
system.caches.RequestTypeMachineType.IFETCH.Directory.miss_type_mach_latency_hist_seqr::max_bucket          639                       (Unspecified)
system.caches.RequestTypeMachineType.IFETCH.Directory.miss_type_mach_latency_hist_seqr::samples         1179                       (Unspecified)
system.caches.RequestTypeMachineType.IFETCH.Directory.miss_type_mach_latency_hist_seqr::mean    70.386768                       (Unspecified)
system.caches.RequestTypeMachineType.IFETCH.Directory.miss_type_mach_latency_hist_seqr::gmean    65.259643                       (Unspecified)
system.caches.RequestTypeMachineType.IFETCH.Directory.miss_type_mach_latency_hist_seqr::stdev    36.629143                       (Unspecified)
system.caches.RequestTypeMachineType.IFETCH.Directory.miss_type_mach_latency_hist_seqr |         823     69.80%     69.80% |         267     22.65%     92.45% |          73      6.19%     98.64% |           3      0.25%     98.90% |           9      0.76%     99.66% |           4      0.34%    100.00% |           0      0.00%    100.00% |           0      0.00%    100.00% |           0      0.00%    100.00% |           0      0.00%    100.00% (Unspecified)
system.caches.RequestTypeMachineType.IFETCH.Directory.miss_type_mach_latency_hist_seqr::total         1179                       (Unspecified)
system.caches.RequestTypeMachineType.RMW_Read.Directory.miss_type_mach_latency_hist_seqr::bucket_size           32                       (Unspecified)
system.caches.RequestTypeMachineType.RMW_Read.Directory.miss_type_mach_latency_hist_seqr::max_bucket          319                       (Unspecified)
system.caches.RequestTypeMachineType.RMW_Read.Directory.miss_type_mach_latency_hist_seqr::samples           16                       (Unspecified)
system.caches.RequestTypeMachineType.RMW_Read.Directory.miss_type_mach_latency_hist_seqr::mean    81.562500                       (Unspecified)
system.caches.RequestTypeMachineType.RMW_Read.Directory.miss_type_mach_latency_hist_seqr::gmean    75.707876                       (Unspecified)
system.caches.RequestTypeMachineType.RMW_Read.Directory.miss_type_mach_latency_hist_seqr::stdev    38.324872                       (Unspecified)
system.caches.RequestTypeMachineType.RMW_Read.Directory.miss_type_mach_latency_hist_seqr |           0      0.00%      0.00% |           7     43.75%     43.75% |           7     43.75%     87.50% |           0      0.00%     87.50% |           0      0.00%     87.50% |           2     12.50%    100.00% |           0      0.00%    100.00% |           0      0.00%    100.00% |           0      0.00%    100.00% |           0      0.00%    100.00% (Unspecified)
system.caches.RequestTypeMachineType.RMW_Read.Directory.miss_type_mach_latency_hist_seqr::total           16                       (Unspecified)
system.caches.controllers0.delayHistogram::samples         6484                       # delay_histogram (Unspecified)
system.caches.controllers0.delayHistogram::mean     0.072486                       # delay_histogram (Unspecified)
system.caches.controllers0.delayHistogram::stdev     0.651761                       # delay_histogram (Unspecified)
system.caches.controllers0.delayHistogram::0         6391     98.57%     98.57% # delay_histogram (Unspecified)
system.caches.controllers0.delayHistogram::2           17      0.26%     98.83% # delay_histogram (Unspecified)
system.caches.controllers0.delayHistogram::4           33      0.51%     99.34% # delay_histogram (Unspecified)
system.caches.controllers0.delayHistogram::6           20      0.31%     99.65% # delay_histogram (Unspecified)
system.caches.controllers0.delayHistogram::8           23      0.35%    100.00% # delay_histogram (Unspecified)
system.caches.controllers0.delayHistogram::total         6484                       # delay_histogram (Unspecified)
system.caches.controllers0.cacheMemory.m_demand_hits        66472                       # Number of cache demand hits (Unspecified)
system.caches.controllers0.cacheMemory.m_demand_misses         3499                       # Number of cache demand misses (Unspecified)
system.caches.controllers0.cacheMemory.m_demand_accesses        69971                       # Number of cache demand accesses (Unspecified)
system.caches.controllers0.forwardToCache.m_buf_msgs     0.013539                       # Average number of messages in buffer (Unspecified)
system.caches.controllers0.forwardToCache.m_stall_time  4825.935215                       # Average number of cycles messages are stalled in this MB (Unspecified)
system.caches.controllers0.mandatoryQueue.m_buf_msgs     0.319206                       # Average number of messages in buffer (Unspecified)
system.caches.controllers0.mandatoryQueue.m_stall_time  1007.619471                       # Average number of cycles messages are stalled in this MB (Unspecified)
system.caches.controllers0.power_state.pwrStateResidencyTicks::UNDEFINED    220619000                       # Cumulative time (in ticks) in various power states (Tick)
system.caches.controllers0.requestFromCache.m_buf_msgs     0.058798                       # Average number of messages in buffer (Unspecified)
system.caches.controllers0.requestFromCache.m_stall_time  1999.972804                       # Average number of cycles messages are stalled in this MB (Unspecified)
system.caches.controllers0.responseToCache.m_buf_msgs     0.015851                       # Average number of messages in buffer (Unspecified)
system.caches.controllers0.responseToCache.m_stall_time  4999.025469                       # Average number of cycles messages are stalled in this MB (Unspecified)
system.caches.controllers1.forwardFromDir.m_buf_msgs     0.013539                       # Average number of messages in buffer (Unspecified)
system.caches.controllers1.forwardFromDir.m_stall_time   957.138778                       # Average number of cycles messages are stalled in this MB (Unspecified)
system.caches.controllers1.power_state.pwrStateResidencyTicks::UNDEFINED    220619000                       # Cumulative time (in ticks) in various power states (Tick)
system.caches.controllers1.requestToDir.m_buf_msgs     0.029399                       # Average number of messages in buffer (Unspecified)
system.caches.controllers1.requestToDir.m_stall_time  9718.410487                       # Average number of cycles messages are stalled in this MB (Unspecified)
system.caches.controllers1.requestToMemory.m_buf_msgs     0.029431                       # Average number of messages in buffer (Unspecified)
system.caches.controllers1.requestToMemory.m_stall_time  1000.494064                       # Average number of cycles messages are stalled in this MB (Unspecified)
system.caches.controllers1.responseFromDir.m_buf_msgs     0.015851                       # Average number of messages in buffer (Unspecified)
system.caches.controllers1.responseFromDir.m_stall_time   999.687244                       # Average number of cycles messages are stalled in this MB (Unspecified)
system.caches.controllers1.responseFromMemory.m_buf_msgs     0.034873                       # Average number of messages in buffer (Unspecified)
system.caches.controllers1.responseFromMemory.m_stall_time   999.691776                       # Average number of cycles messages are stalled in this MB (Unspecified)
system.caches.network.msg_count.Control          6998                       (Unspecified)
system.caches.network.msg_byte.Control          55984                       (Unspecified)
system.caches.network.msg_count.Data             5974                       (Unspecified)
system.caches.network.msg_byte.Data            430128                       (Unspecified)
system.caches.network.msg_count.Response_Data         6994                       (Unspecified)
system.caches.network.msg_byte.Response_Data       503568                       (Unspecified)
system.caches.network.msg_count.Writeback_Control         5974                       (Unspecified)
system.caches.network.msg_byte.Writeback_Control        47792                       (Unspecified)
system.caches.network.int_link_buffers2.m_buf_msgs     0.029399                       # Average number of messages in buffer (Unspecified)
system.caches.network.int_link_buffers2.m_stall_time  7718.573664                       # Average number of cycles messages are stalled in this MB (Unspecified)
system.caches.network.int_link_buffers8.m_buf_msgs     0.013539                       # Average number of messages in buffer (Unspecified)
system.caches.network.int_link_buffers8.m_stall_time  2911.730182                       # Average number of cycles messages are stalled in this MB (Unspecified)
system.caches.network.int_link_buffers9.m_buf_msgs     0.015851                       # Average number of messages in buffer (Unspecified)
system.caches.network.int_link_buffers9.m_stall_time  2999.714440                       # Average number of cycles messages are stalled in this MB (Unspecified)
system.caches.network.power_state.pwrStateResidencyTicks::UNDEFINED    220619000                       # Cumulative time (in ticks) in various power states (Tick)
system.caches.network.routers0.percent_links_utilized     7.347735                       (Unspecified)
system.caches.network.routers0.msg_count.Control::2         3499                       (Unspecified)
system.caches.network.routers0.msg_bytes.Control::2        27992                       (Unspecified)
system.caches.network.routers0.msg_count.Data::2         2987                       (Unspecified)
system.caches.network.routers0.msg_bytes.Data::2       215064                       (Unspecified)
system.caches.network.routers0.msg_count.Response_Data::4         3497                       (Unspecified)
system.caches.network.routers0.msg_bytes.Response_Data::4       251784                       (Unspecified)
system.caches.network.routers0.msg_count.Writeback_Control::3         2987                       (Unspecified)
system.caches.network.routers0.msg_bytes.Writeback_Control::3        23896                       (Unspecified)
system.caches.network.routers0.port_buffers3.m_buf_msgs     0.013539                       # Average number of messages in buffer (Unspecified)
system.caches.network.routers0.port_buffers3.m_stall_time  3868.837231                       # Average number of cycles messages are stalled in this MB (Unspecified)
system.caches.network.routers0.port_buffers4.m_buf_msgs     0.015851                       # Average number of messages in buffer (Unspecified)
system.caches.network.routers0.port_buffers4.m_stall_time  3999.374487                       # Average number of cycles messages are stalled in this MB (Unspecified)
system.caches.network.routers0.port_buffers7.m_buf_msgs     0.094774                       # Average number of messages in buffer (Unspecified)
system.caches.network.routers0.port_buffers7.m_stall_time  6718.641655                       # Average number of cycles messages are stalled in this MB (Unspecified)
system.caches.network.routers0.power_state.pwrStateResidencyTicks::UNDEFINED    220619000                       # Cumulative time (in ticks) in various power states (Tick)
system.caches.network.routers0.throttle00.link_utilization     7.809844                       (Unspecified)
system.caches.network.routers0.throttle00.msg_count.Response_Data::4         3497                       (Unspecified)
system.caches.network.routers0.throttle00.msg_bytes.Response_Data::4       251784                       (Unspecified)
system.caches.network.routers0.throttle00.msg_count.Writeback_Control::3         2987                       (Unspecified)
system.caches.network.routers0.throttle00.msg_bytes.Writeback_Control::3        23896                       (Unspecified)
system.caches.network.routers0.throttle01.link_utilization     6.885626                       (Unspecified)
system.caches.network.routers0.throttle01.msg_count.Control::2         3499                       (Unspecified)
system.caches.network.routers0.throttle01.msg_bytes.Control::2        27992                       (Unspecified)
system.caches.network.routers0.throttle01.msg_count.Data::2         2987                       (Unspecified)
system.caches.network.routers0.throttle01.msg_bytes.Data::2       215064                       (Unspecified)
system.caches.network.routers1.percent_links_utilized     7.347735                       (Unspecified)
system.caches.network.routers1.msg_count.Control::2         3499                       (Unspecified)
system.caches.network.routers1.msg_bytes.Control::2        27992                       (Unspecified)
system.caches.network.routers1.msg_count.Data::2         2987                       (Unspecified)
system.caches.network.routers1.msg_bytes.Data::2       215064                       (Unspecified)
system.caches.network.routers1.msg_count.Response_Data::4         3497                       (Unspecified)
system.caches.network.routers1.msg_bytes.Response_Data::4       251784                       (Unspecified)
system.caches.network.routers1.msg_count.Writeback_Control::3         2987                       (Unspecified)
system.caches.network.routers1.msg_bytes.Writeback_Control::3        23896                       (Unspecified)
system.caches.network.routers1.port_buffers2.m_buf_msgs     0.029399                       # Average number of messages in buffer (Unspecified)
system.caches.network.routers1.port_buffers2.m_stall_time  8718.496609                       # Average number of cycles messages are stalled in this MB (Unspecified)
system.caches.network.routers1.port_buffers6.m_buf_msgs     0.014586                       # Average number of messages in buffer (Unspecified)
system.caches.network.routers1.port_buffers6.m_stall_time  1954.614068                       # Average number of cycles messages are stalled in this MB (Unspecified)
system.caches.network.routers1.port_buffers7.m_buf_msgs     0.015869                       # Average number of messages in buffer (Unspecified)
system.caches.network.routers1.port_buffers7.m_stall_time  2000.045327                       # Average number of cycles messages are stalled in this MB (Unspecified)
system.caches.network.routers1.power_state.pwrStateResidencyTicks::UNDEFINED    220619000                       # Cumulative time (in ticks) in various power states (Tick)
system.caches.network.routers1.throttle00.link_utilization     6.885626                       (Unspecified)
system.caches.network.routers1.throttle00.msg_count.Control::2         3499                       (Unspecified)
system.caches.network.routers1.throttle00.msg_bytes.Control::2        27992                       (Unspecified)
system.caches.network.routers1.throttle00.msg_count.Data::2         2987                       (Unspecified)
system.caches.network.routers1.throttle00.msg_bytes.Data::2       215064                       (Unspecified)
system.caches.network.routers1.throttle01.link_utilization     7.809844                       (Unspecified)
system.caches.network.routers1.throttle01.msg_count.Response_Data::4         3497                       (Unspecified)
system.caches.network.routers1.throttle01.msg_bytes.Response_Data::4       251784                       (Unspecified)
system.caches.network.routers1.throttle01.msg_count.Writeback_Control::3         2987                       (Unspecified)
system.caches.network.routers1.throttle01.msg_bytes.Writeback_Control::3        23896                       (Unspecified)
system.caches.power_state.pwrStateResidencyTicks::UNDEFINED    220619000                       # Cumulative time (in ticks) in various power states (Tick)
system.caches.sequencers.power_state.pwrStateResidencyTicks::UNDEFINED    220619000                       # Cumulative time (in ticks) in various power states (Tick)
system.caches.sys_port_proxy.power_state.pwrStateResidencyTicks::UNDEFINED    220619000                       # Cumulative time (in ticks) in various power states (Tick)
system.clk_domain.clock                          1000                       # Clock period in ticks (Tick)
system.clk_domain.voltage_domain.voltage            1                       # Voltage in Volts (Volt)
system.cpu.numCycles                           220620                       # Number of cpu cycles simulated (Cycle)
system.cpu.numWorkItemsStarted                      0                       # Number of work items this cpu started (Count)
system.cpu.numWorkItemsCompleted                    0                       # Number of work items this cpu completed (Count)
system.cpu.instsAdded                          341360                       # Number of instructions added to the IQ (excludes non-spec) (Count)
system.cpu.nonSpecInstsAdded                        5                       # Number of non-speculative instructions added to the IQ (Count)
system.cpu.instsIssued                         304600                       # Number of instructions issued (Count)
system.cpu.squashedInstsIssued                    305                       # Number of squashed instructions issued (Count)
system.cpu.squashedInstsExamined               113968                       # Number of squashed instructions iterated over during squash; mainly for profiling (Count)
system.cpu.squashedOperandsExamined            159792                       # Number of squashed operands that are examined and possibly removed from graph (Count)
system.cpu.squashedNonSpecRemoved                   4                       # Number of squashed non-spec instructions that were removed (Count)
system.cpu.numIssuedDist::samples              189840                       # Number of insts issued each cycle (Count)
system.cpu.numIssuedDist::mean               1.604509                       # Number of insts issued each cycle (Count)
system.cpu.numIssuedDist::stdev              2.292935                       # Number of insts issued each cycle (Count)
system.cpu.numIssuedDist::underflows                0      0.00%      0.00% # Number of insts issued each cycle (Count)
system.cpu.numIssuedDist::0                    108514     57.16%     57.16% # Number of insts issued each cycle (Count)
system.cpu.numIssuedDist::1                     14343      7.56%     64.72% # Number of insts issued each cycle (Count)
system.cpu.numIssuedDist::2                     13138      6.92%     71.64% # Number of insts issued each cycle (Count)
system.cpu.numIssuedDist::3                     12366      6.51%     78.15% # Number of insts issued each cycle (Count)
system.cpu.numIssuedDist::4                     11888      6.26%     84.41% # Number of insts issued each cycle (Count)
system.cpu.numIssuedDist::5                     11120      5.86%     90.27% # Number of insts issued each cycle (Count)
system.cpu.numIssuedDist::6                      9418      4.96%     95.23% # Number of insts issued each cycle (Count)
system.cpu.numIssuedDist::7                      5201      2.74%     97.97% # Number of insts issued each cycle (Count)
system.cpu.numIssuedDist::8                      3852      2.03%    100.00% # Number of insts issued each cycle (Count)
system.cpu.numIssuedDist::overflows                 0      0.00%    100.00% # Number of insts issued each cycle (Count)
system.cpu.numIssuedDist::min_value                 0                       # Number of insts issued each cycle (Count)
system.cpu.numIssuedDist::max_value                 8                       # Number of insts issued each cycle (Count)
system.cpu.numIssuedDist::total                189840                       # Number of insts issued each cycle (Count)
system.cpu.statFuBusy::No_OpClass                   0      0.00%      0.00% # attempts to use FU when none available (Count)
system.cpu.statFuBusy::IntAlu                    3309     72.23%     72.23% # attempts to use FU when none available (Count)
system.cpu.statFuBusy::IntMult                      0      0.00%     72.23% # attempts to use FU when none available (Count)
system.cpu.statFuBusy::IntDiv                       0      0.00%     72.23% # attempts to use FU when none available (Count)
system.cpu.statFuBusy::FloatAdd                     0      0.00%     72.23% # attempts to use FU when none available (Count)
system.cpu.statFuBusy::FloatCmp                     0      0.00%     72.23% # attempts to use FU when none available (Count)
system.cpu.statFuBusy::FloatCvt                     0      0.00%     72.23% # attempts to use FU when none available (Count)
system.cpu.statFuBusy::FloatMult                    0      0.00%     72.23% # attempts to use FU when none available (Count)
system.cpu.statFuBusy::FloatMultAcc                 0      0.00%     72.23% # attempts to use FU when none available (Count)
system.cpu.statFuBusy::FloatDiv                     0      0.00%     72.23% # attempts to use FU when none available (Count)
system.cpu.statFuBusy::FloatMisc                    0      0.00%     72.23% # attempts to use FU when none available (Count)
system.cpu.statFuBusy::FloatSqrt                    0      0.00%     72.23% # attempts to use FU when none available (Count)
system.cpu.statFuBusy::SimdAdd                      0      0.00%     72.23% # attempts to use FU when none available (Count)
system.cpu.statFuBusy::SimdAddAcc                   0      0.00%     72.23% # attempts to use FU when none available (Count)
system.cpu.statFuBusy::SimdAlu                     25      0.55%     72.78% # attempts to use FU when none available (Count)
system.cpu.statFuBusy::SimdCmp                      0      0.00%     72.78% # attempts to use FU when none available (Count)
system.cpu.statFuBusy::SimdCvt                      7      0.15%     72.93% # attempts to use FU when none available (Count)
system.cpu.statFuBusy::SimdMisc                     1      0.02%     72.95% # attempts to use FU when none available (Count)
system.cpu.statFuBusy::SimdMult                     0      0.00%     72.95% # attempts to use FU when none available (Count)
system.cpu.statFuBusy::SimdMultAcc                  0      0.00%     72.95% # attempts to use FU when none available (Count)
system.cpu.statFuBusy::SimdShift                   18      0.39%     73.35% # attempts to use FU when none available (Count)
system.cpu.statFuBusy::SimdShiftAcc                 0      0.00%     73.35% # attempts to use FU when none available (Count)
system.cpu.statFuBusy::SimdDiv                      0      0.00%     73.35% # attempts to use FU when none available (Count)
system.cpu.statFuBusy::SimdSqrt                     0      0.00%     73.35% # attempts to use FU when none available (Count)
system.cpu.statFuBusy::SimdFloatAdd                 0      0.00%     73.35% # attempts to use FU when none available (Count)
system.cpu.statFuBusy::SimdFloatAlu                 0      0.00%     73.35% # attempts to use FU when none available (Count)
system.cpu.statFuBusy::SimdFloatCmp                 0      0.00%     73.35% # attempts to use FU when none available (Count)
system.cpu.statFuBusy::SimdFloatCvt                 0      0.00%     73.35% # attempts to use FU when none available (Count)
system.cpu.statFuBusy::SimdFloatDiv                 0      0.00%     73.35% # attempts to use FU when none available (Count)
system.cpu.statFuBusy::SimdFloatMisc                0      0.00%     73.35% # attempts to use FU when none available (Count)
system.cpu.statFuBusy::SimdFloatMult                0      0.00%     73.35% # attempts to use FU when none available (Count)
system.cpu.statFuBusy::SimdFloatMultAcc             0      0.00%     73.35% # attempts to use FU when none available (Count)
system.cpu.statFuBusy::SimdFloatSqrt                0      0.00%     73.35% # attempts to use FU when none available (Count)
system.cpu.statFuBusy::SimdReduceAdd                0      0.00%     73.35% # attempts to use FU when none available (Count)
system.cpu.statFuBusy::SimdReduceAlu                0      0.00%     73.35% # attempts to use FU when none available (Count)
system.cpu.statFuBusy::SimdReduceCmp                0      0.00%     73.35% # attempts to use FU when none available (Count)
system.cpu.statFuBusy::SimdFloatReduceAdd            0      0.00%     73.35% # attempts to use FU when none available (Count)
system.cpu.statFuBusy::SimdFloatReduceCmp            0      0.00%     73.35% # attempts to use FU when none available (Count)
system.cpu.statFuBusy::SimdAes                      0      0.00%     73.35% # attempts to use FU when none available (Count)
system.cpu.statFuBusy::SimdAesMix                   0      0.00%     73.35% # attempts to use FU when none available (Count)
system.cpu.statFuBusy::SimdSha1Hash                 0      0.00%     73.35% # attempts to use FU when none available (Count)
system.cpu.statFuBusy::SimdSha1Hash2                0      0.00%     73.35% # attempts to use FU when none available (Count)
system.cpu.statFuBusy::SimdSha256Hash               0      0.00%     73.35% # attempts to use FU when none available (Count)
system.cpu.statFuBusy::SimdSha256Hash2              0      0.00%     73.35% # attempts to use FU when none available (Count)
system.cpu.statFuBusy::SimdShaSigma2                0      0.00%     73.35% # attempts to use FU when none available (Count)
system.cpu.statFuBusy::SimdShaSigma3                0      0.00%     73.35% # attempts to use FU when none available (Count)
system.cpu.statFuBusy::SimdPredAlu                  0      0.00%     73.35% # attempts to use FU when none available (Count)
system.cpu.statFuBusy::MemRead                    757     16.52%     89.87% # attempts to use FU when none available (Count)
system.cpu.statFuBusy::MemWrite                   429      9.36%     99.24% # attempts to use FU when none available (Count)
system.cpu.statFuBusy::FloatMemRead                13      0.28%     99.52% # attempts to use FU when none available (Count)
system.cpu.statFuBusy::FloatMemWrite               22      0.48%    100.00% # attempts to use FU when none available (Count)
system.cpu.statFuBusy::IprAccess                    0      0.00%    100.00% # attempts to use FU when none available (Count)
system.cpu.statFuBusy::InstPrefetch                 0      0.00%    100.00% # attempts to use FU when none available (Count)
system.cpu.statIssuedInstType_0::No_OpClass         3374      1.11%      1.11% # Number of instructions issued per FU type, per thread (Count)
system.cpu.statIssuedInstType_0::IntAlu        226889     74.49%     75.60% # Number of instructions issued per FU type, per thread (Count)
system.cpu.statIssuedInstType_0::IntMult           23      0.01%     75.60% # Number of instructions issued per FU type, per thread (Count)
system.cpu.statIssuedInstType_0::IntDiv          1997      0.66%     76.26% # Number of instructions issued per FU type, per thread (Count)
system.cpu.statIssuedInstType_0::FloatAdd          661      0.22%     76.48% # Number of instructions issued per FU type, per thread (Count)
system.cpu.statIssuedInstType_0::FloatCmp            0      0.00%     76.48% # Number of instructions issued per FU type, per thread (Count)
system.cpu.statIssuedInstType_0::FloatCvt            0      0.00%     76.48% # Number of instructions issued per FU type, per thread (Count)
system.cpu.statIssuedInstType_0::FloatMult            0      0.00%     76.48% # Number of instructions issued per FU type, per thread (Count)
system.cpu.statIssuedInstType_0::FloatMultAcc            0      0.00%     76.48% # Number of instructions issued per FU type, per thread (Count)
system.cpu.statIssuedInstType_0::FloatDiv            0      0.00%     76.48% # Number of instructions issued per FU type, per thread (Count)
system.cpu.statIssuedInstType_0::FloatMisc            0      0.00%     76.48% # Number of instructions issued per FU type, per thread (Count)
system.cpu.statIssuedInstType_0::FloatSqrt            0      0.00%     76.48% # Number of instructions issued per FU type, per thread (Count)
system.cpu.statIssuedInstType_0::SimdAdd          755      0.25%     76.72% # Number of instructions issued per FU type, per thread (Count)
system.cpu.statIssuedInstType_0::SimdAddAcc            0      0.00%     76.72% # Number of instructions issued per FU type, per thread (Count)
system.cpu.statIssuedInstType_0::SimdAlu         1912      0.63%     77.35% # Number of instructions issued per FU type, per thread (Count)
system.cpu.statIssuedInstType_0::SimdCmp            0      0.00%     77.35% # Number of instructions issued per FU type, per thread (Count)
system.cpu.statIssuedInstType_0::SimdCvt         1794      0.59%     77.94% # Number of instructions issued per FU type, per thread (Count)
system.cpu.statIssuedInstType_0::SimdMisc         1296      0.43%     78.37% # Number of instructions issued per FU type, per thread (Count)
system.cpu.statIssuedInstType_0::SimdMult            0      0.00%     78.37% # Number of instructions issued per FU type, per thread (Count)
system.cpu.statIssuedInstType_0::SimdMultAcc            0      0.00%     78.37% # Number of instructions issued per FU type, per thread (Count)
system.cpu.statIssuedInstType_0::SimdShift          617      0.20%     78.57% # Number of instructions issued per FU type, per thread (Count)
system.cpu.statIssuedInstType_0::SimdShiftAcc            0      0.00%     78.57% # Number of instructions issued per FU type, per thread (Count)
system.cpu.statIssuedInstType_0::SimdDiv            0      0.00%     78.57% # Number of instructions issued per FU type, per thread (Count)
system.cpu.statIssuedInstType_0::SimdSqrt            0      0.00%     78.57% # Number of instructions issued per FU type, per thread (Count)
system.cpu.statIssuedInstType_0::SimdFloatAdd            0      0.00%     78.57% # Number of instructions issued per FU type, per thread (Count)
system.cpu.statIssuedInstType_0::SimdFloatAlu            0      0.00%     78.57% # Number of instructions issued per FU type, per thread (Count)
system.cpu.statIssuedInstType_0::SimdFloatCmp            0      0.00%     78.57% # Number of instructions issued per FU type, per thread (Count)
system.cpu.statIssuedInstType_0::SimdFloatCvt            0      0.00%     78.57% # Number of instructions issued per FU type, per thread (Count)
system.cpu.statIssuedInstType_0::SimdFloatDiv            0      0.00%     78.57% # Number of instructions issued per FU type, per thread (Count)
system.cpu.statIssuedInstType_0::SimdFloatMisc            0      0.00%     78.57% # Number of instructions issued per FU type, per thread (Count)
system.cpu.statIssuedInstType_0::SimdFloatMult            0      0.00%     78.57% # Number of instructions issued per FU type, per thread (Count)
system.cpu.statIssuedInstType_0::SimdFloatMultAcc            0      0.00%     78.57% # Number of instructions issued per FU type, per thread (Count)
system.cpu.statIssuedInstType_0::SimdFloatSqrt            0      0.00%     78.57% # Number of instructions issued per FU type, per thread (Count)
system.cpu.statIssuedInstType_0::SimdReduceAdd            0      0.00%     78.57% # Number of instructions issued per FU type, per thread (Count)
system.cpu.statIssuedInstType_0::SimdReduceAlu            0      0.00%     78.57% # Number of instructions issued per FU type, per thread (Count)
system.cpu.statIssuedInstType_0::SimdReduceCmp            0      0.00%     78.57% # Number of instructions issued per FU type, per thread (Count)
system.cpu.statIssuedInstType_0::SimdFloatReduceAdd            0      0.00%     78.57% # Number of instructions issued per FU type, per thread (Count)
system.cpu.statIssuedInstType_0::SimdFloatReduceCmp            0      0.00%     78.57% # Number of instructions issued per FU type, per thread (Count)
system.cpu.statIssuedInstType_0::SimdAes            0      0.00%     78.57% # Number of instructions issued per FU type, per thread (Count)
system.cpu.statIssuedInstType_0::SimdAesMix            0      0.00%     78.57% # Number of instructions issued per FU type, per thread (Count)
system.cpu.statIssuedInstType_0::SimdSha1Hash            0      0.00%     78.57% # Number of instructions issued per FU type, per thread (Count)
system.cpu.statIssuedInstType_0::SimdSha1Hash2            0      0.00%     78.57% # Number of instructions issued per FU type, per thread (Count)
system.cpu.statIssuedInstType_0::SimdSha256Hash            0      0.00%     78.57% # Number of instructions issued per FU type, per thread (Count)
system.cpu.statIssuedInstType_0::SimdSha256Hash2            0      0.00%     78.57% # Number of instructions issued per FU type, per thread (Count)
system.cpu.statIssuedInstType_0::SimdShaSigma2            0      0.00%     78.57% # Number of instructions issued per FU type, per thread (Count)
system.cpu.statIssuedInstType_0::SimdShaSigma3            0      0.00%     78.57% # Number of instructions issued per FU type, per thread (Count)
system.cpu.statIssuedInstType_0::SimdPredAlu            0      0.00%     78.57% # Number of instructions issued per FU type, per thread (Count)
system.cpu.statIssuedInstType_0::MemRead        43835     14.39%     92.96% # Number of instructions issued per FU type, per thread (Count)
system.cpu.statIssuedInstType_0::MemWrite        17673      5.80%     98.76% # Number of instructions issued per FU type, per thread (Count)
system.cpu.statIssuedInstType_0::FloatMemRead         2512      0.82%     99.59% # Number of instructions issued per FU type, per thread (Count)
system.cpu.statIssuedInstType_0::FloatMemWrite         1262      0.41%    100.00% # Number of instructions issued per FU type, per thread (Count)
system.cpu.statIssuedInstType_0::IprAccess            0      0.00%    100.00% # Number of instructions issued per FU type, per thread (Count)
system.cpu.statIssuedInstType_0::InstPrefetch            0      0.00%    100.00% # Number of instructions issued per FU type, per thread (Count)
system.cpu.statIssuedInstType_0::total         304600                       # Number of instructions issued per FU type, per thread (Count)
system.cpu.issueRate                         1.380655                       # Inst issue rate ((Count/Cycle))
system.cpu.fuBusy                                4581                       # FU busy when requested (Count)
system.cpu.fuBusyRate                        0.015039                       # FU busy rate (busy events/executed inst) ((Count/Count))
system.cpu.intInstQueueReads                   781546                       # Number of integer instruction queue reads (Count)
system.cpu.intInstQueueWrites                  435762                       # Number of integer instruction queue writes (Count)
system.cpu.intInstQueueWakeupAccesses          284717                       # Number of integer instruction queue wakeup accesses (Count)
system.cpu.fpInstQueueReads                     22380                       # Number of floating instruction queue reads (Count)
system.cpu.fpInstQueueWrites                    19626                       # Number of floating instruction queue writes (Count)
system.cpu.fpInstQueueWakeupAccesses            10484                       # Number of floating instruction queue wakeup accesses (Count)
system.cpu.vecInstQueueReads                        0                       # Number of vector instruction queue reads (Count)
system.cpu.vecInstQueueWrites                       0                       # Number of vector instruction queue writes (Count)
system.cpu.vecInstQueueWakeupAccesses               0                       # Number of vector instruction queue wakeup accesses (Count)
system.cpu.intAluAccesses                      294597                       # Number of integer alu accesses (Count)
system.cpu.fpAluAccesses                        11210                       # Number of floating point alu accesses (Count)
system.cpu.vecAluAccesses                           0                       # Number of vector alu accesses (Count)
system.cpu.idleCycles                               0                       # Number of cycles IEW is idle (Cycle)
system.cpu.squashCycles                          2617                       # Number of cycles IEW is squashing (Cycle)
system.cpu.blockCycles                          48257                       # Number of cycles IEW is blocking (Cycle)
system.cpu.unblockCycles                         2941                       # Number of cycles IEW is unblocking (Cycle)
system.cpu.dispatchedInsts                     341365                       # Number of instructions dispatched to IQ (Count)
system.cpu.dispSquashedInsts                      469                       # Number of squashed instructions skipped by dispatch (Count)
system.cpu.dispLoadInsts                        48197                       # Number of dispatched load instructions (Count)
system.cpu.dispStoreInsts                       21133                       # Number of dispatched store instructions (Count)
system.cpu.dispNonSpecInsts                         5                       # Number of dispatched non-speculative instructions (Count)
system.cpu.iqFullEvents                           811                       # Number of times the IQ has become full, causing a stall (Count)
system.cpu.lsqFullEvents                         1746                       # Number of times the LSQ has become full, causing a stall (Count)
system.cpu.memOrderViolationEvents                 64                       # Number of memory order violations (Count)
system.cpu.predictedTakenIncorrect                563                       # Number of branches that were predicted taken incorrectly (Count)
system.cpu.predictedNotTakenIncorrect            2347                       # Number of branches that were predicted not taken incorrectly (Count)
system.cpu.branchMispredicts                     2910                       # Number of branch mispredicts detected at execute (Count)
system.cpu.numInsts                            299913                       # Number of executed instructions (Count)
system.cpu.numLoadInsts                         45281                       # Number of load instructions executed (Count)
system.cpu.numSquashedInsts                      4687                       # Number of squashed instructions skipped in execute (Count)
system.cpu.numSwp                                   0                       # Number of swp insts executed (Count)
system.cpu.numNop                                   0                       # Number of nop insts executed (Count)
system.cpu.numRefs                              63770                       # Number of memory reference insts executed (Count)
system.cpu.numBranches                          28195                       # Number of branches executed (Count)
system.cpu.numStoreInsts                        18489                       # Number of stores executed (Count)
system.cpu.numRate                           1.359410                       # Inst execution rate ((Count/Cycle))
system.cpu.instsToCommit                       296760                       # Cumulative count of insts sent to commit (Count)
system.cpu.writebackCount                      295201                       # Cumulative count of insts written-back (Count)
system.cpu.producerInst                        222527                       # Number of instructions producing a value (Count)
system.cpu.consumerInst                        388042                       # Number of instructions consuming a value (Count)
system.cpu.wbRate                            1.338052                       # Insts written-back per cycle ((Count/Cycle))
system.cpu.wbFanout                          0.573461                       # Average fanout of values written-back ((Count/Count))
system.cpu.timesIdled                             756                       # Number of times that the entire CPU went into an idle state and unscheduled itself (Count)
system.cpu.idleCycles                           30780                       # Total number of cycles that the CPU has spent unscheduled due to idling (Cycle)
system.cpu.committedInsts                      123064                       # Number of Instructions Simulated (Count)
system.cpu.committedOps                        227381                       # Number of Ops (including micro ops) Simulated (Count)
system.cpu.cpi                               1.792726                       # CPI: Cycles Per Instruction ((Cycle/Count))
system.cpu.totalCpi                          1.792726                       # CPI: Total CPI of All Threads ((Cycle/Count))
system.cpu.ipc                               0.557810                       # IPC: Instructions Per Cycle ((Count/Cycle))
system.cpu.totalIpc                          0.557810                       # IPC: Total IPC of All Threads ((Count/Cycle))
system.cpu.intRegfileReads                     441519                       # Number of integer regfile reads (Count)
system.cpu.intRegfileWrites                    241697                       # Number of integer regfile writes (Count)
system.cpu.fpRegfileReads                       15728                       # Number of floating regfile reads (Count)
system.cpu.fpRegfileWrites                       8494                       # Number of floating regfile writes (Count)
system.cpu.ccRegfileReads                      160415                       # number of cc regfile reads (Count)
system.cpu.ccRegfileWrites                     103669                       # number of cc regfile writes (Count)
system.cpu.miscRegfileReads                    123692                       # number of misc regfile reads (Count)
system.cpu.MemDepUnit__0.insertedLoads          48197                       # Number of loads inserted to the mem dependence unit. (Count)
system.cpu.MemDepUnit__0.insertedStores         21133                       # Number of stores inserted to the mem dependence unit. (Count)
system.cpu.MemDepUnit__0.conflictingLoads         1206                       # Number of conflicting loads. (Count)
system.cpu.MemDepUnit__0.conflictingStores          673                       # Number of conflicting stores. (Count)
system.cpu.MemDepUnit__1.insertedLoads              0                       # Number of loads inserted to the mem dependence unit. (Count)
system.cpu.MemDepUnit__1.insertedStores             0                       # Number of stores inserted to the mem dependence unit. (Count)
system.cpu.MemDepUnit__1.conflictingLoads            0                       # Number of conflicting loads. (Count)
system.cpu.MemDepUnit__1.conflictingStores            0                       # Number of conflicting stores. (Count)
system.cpu.MemDepUnit__2.insertedLoads              0                       # Number of loads inserted to the mem dependence unit. (Count)
system.cpu.MemDepUnit__2.insertedStores             0                       # Number of stores inserted to the mem dependence unit. (Count)
system.cpu.MemDepUnit__2.conflictingLoads            0                       # Number of conflicting loads. (Count)
system.cpu.MemDepUnit__2.conflictingStores            0                       # Number of conflicting stores. (Count)
system.cpu.MemDepUnit__3.insertedLoads              0                       # Number of loads inserted to the mem dependence unit. (Count)
system.cpu.MemDepUnit__3.insertedStores             0                       # Number of stores inserted to the mem dependence unit. (Count)
system.cpu.MemDepUnit__3.conflictingLoads            0                       # Number of conflicting loads. (Count)
system.cpu.MemDepUnit__3.conflictingStores            0                       # Number of conflicting stores. (Count)
system.cpu.branchPred.lookups                   40045                       # Number of BP lookups (Count)
system.cpu.branchPred.condPredicted             33655                       # Number of conditional branches predicted (Count)
system.cpu.branchPred.condIncorrect              2726                       # Number of conditional branches incorrect (Count)
system.cpu.branchPred.BTBLookups                15665                       # Number of BTB lookups (Count)
system.cpu.branchPred.BTBHits                   14000                       # Number of BTB hits (Count)
system.cpu.branchPred.BTBHitRatio            0.893712                       # BTB Hit Ratio (Ratio)
system.cpu.branchPred.RASUsed                    1743                       # Number of times the RAS was used to get a target. (Count)
system.cpu.branchPred.RASIncorrect                  3                       # Number of incorrect RAS predictions. (Count)
system.cpu.branchPred.indirectLookups            1118                       # Number of indirect predictor lookups. (Count)
system.cpu.branchPred.indirectHits                170                       # Number of indirect target hits. (Count)
[...]
system.mem_ctrl.rdPerTurnAround::mean       15.681818                       # Reads before turning the bus around for writes (Count)
system.mem_ctrl.rdPerTurnAround::gmean      15.623680                       # Reads before turning the bus around for writes (Count)
system.mem_ctrl.rdPerTurnAround::stdev       1.271745                       # Reads before turning the bus around for writes (Count)
system.mem_ctrl.rdPerTurnAround::11                 2      4.55%      4.55% # Reads before turning the bus around for writes (Count)
system.mem_ctrl.rdPerTurnAround::13                 1      2.27%      6.82% # Reads before turning the bus around for writes (Count)
system.mem_ctrl.rdPerTurnAround::15                 5     11.36%     18.18% # Reads before turning the bus around for writes (Count)
system.mem_ctrl.rdPerTurnAround::16                34     77.27%     95.45% # Reads before turning the bus around for writes (Count)
system.mem_ctrl.rdPerTurnAround::17                 1      2.27%     97.73% # Reads before turning the bus around for writes (Count)
system.mem_ctrl.rdPerTurnAround::19                 1      2.27%    100.00% # Reads before turning the bus around for writes (Count)
system.mem_ctrl.rdPerTurnAround::total             44                       # Reads before turning the bus around for writes (Count)
system.mem_ctrl.wrPerTurnAround::samples           44                       # Writes before turning the bus around for reads (Count)
system.mem_ctrl.wrPerTurnAround::mean       16.068182                       # Writes before turning the bus around for reads (Count)
system.mem_ctrl.wrPerTurnAround::gmean      16.065007                       # Writes before turning the bus around for reads (Count)
system.mem_ctrl.wrPerTurnAround::stdev       0.333949                       # Writes before turning the bus around for reads (Count)
system.mem_ctrl.wrPerTurnAround::16                42     95.45%     95.45% # Writes before turning the bus around for reads (Count)
system.mem_ctrl.wrPerTurnAround::17                 1      2.27%     97.73% # Writes before turning the bus around for reads (Count)
system.mem_ctrl.wrPerTurnAround::18                 1      2.27%    100.00% # Writes before turning the bus around for reads (Count)
system.mem_ctrl.wrPerTurnAround::total             44                       # Writes before turning the bus around for reads (Count)
system.mem_ctrl.bytesReadWrQ                     1024                       # Total number of bytes read from write queue (Byte)
system.mem_ctrl.bytesReadSys                    45120                       # Total read bytes from the system interface side (Byte)
system.mem_ctrl.bytesWrittenSys                 45120                       # Total written bytes from the system interface side (Byte)
system.mem_ctrl.avgRdBWSys               78680703.17390843                       # Average system read bandwidth in Byte/s ((Byte/Second))
system.mem_ctrl.avgWrBWSys               78680703.17390843                       # Average system write bandwidth in Byte/s ((Byte/Second))
system.mem_ctrl.totGap                      721417000                       # Total gap between requests (Tick)
system.mem_ctrl.avgGap                      511643.26                       # Average gap between requests ((Tick/Count))
system.mem_ctrl.requestorReadBytes::caches.controllers1        44096                       # Per-requestor bytes read from memory (Byte)
system.mem_ctrl.requestorWriteBytes::caches.controllers1        45248                       # Per-requestor bytes write to memory (Byte)
system.mem_ctrl.requestorReadRate::caches.controllers1 76895041.825280711055                       # Per-requestor bytes read from memory rate ((Byte/Second))
system.mem_ctrl.requestorWriteRate::caches.controllers1 78903910.842486888170                       # Per-requestor bytes write to memory rate ((Byte/Second))
system.mem_ctrl.requestorReadAccesses::caches.controllers1          705                       # Per-requestor read serviced memory accesses (Count)
system.mem_ctrl.requestorWriteAccesses::caches.controllers1          705                       # Per-requestor write serviced memory accesses (Count)
system.mem_ctrl.requestorReadTotalLat::caches.controllers1     26234250                       # Per-requestor read total memory access latency (Tick)
system.mem_ctrl.requestorWriteTotalLat::caches.controllers1  19874979250                       # Per-requestor write total memory access latency (Tick)
system.mem_ctrl.requestorReadAvgLat::caches.controllers1     37211.70                       # Per-requestor read average memory access latency ((Tick/Count))
system.mem_ctrl.requestorWriteAvgLat::caches.controllers1  28191459.93                       # Per-requestor write average memory access latency ((Tick/Count))
system.mem_ctrl.dram.bytesRead::caches.controllers1        45120                       # Number of bytes read from this memory (Byte)
system.mem_ctrl.dram.bytesRead::total           45120                       # Number of bytes read from this memory (Byte)
system.mem_ctrl.dram.bytesWritten::caches.controllers1        45120                       # Number of bytes written to this memory (Byte)
system.mem_ctrl.dram.bytesWritten::total        45120                       # Number of bytes written to this memory (Byte)
system.mem_ctrl.dram.numReads::caches.controllers1          705                       # Number of read requests responded to by this memory (Count)
system.mem_ctrl.dram.numReads::total              705                       # Number of read requests responded to by this memory (Count)
system.mem_ctrl.dram.numWrites::caches.controllers1          705                       # Number of write requests responded to by this memory (Count)
system.mem_ctrl.dram.numWrites::total             705                       # Number of write requests responded to by this memory (Count)
system.mem_ctrl.dram.bwRead::caches.controllers1     78680703                       # Total read bandwidth from this memory ((Byte/Second))
system.mem_ctrl.dram.bwRead::total           78680703                       # Total read bandwidth from this memory ((Byte/Second))
system.mem_ctrl.dram.bwWrite::caches.controllers1     78680703                       # Write bandwidth from this memory ((Byte/Second))
system.mem_ctrl.dram.bwWrite::total          78680703                       # Write bandwidth from this memory ((Byte/Second))
system.mem_ctrl.dram.bwTotal::caches.controllers1    157361406                       # Total bandwidth to/from this memory ((Byte/Second))
system.mem_ctrl.dram.bwTotal::total         157361406                       # Total bandwidth to/from this memory ((Byte/Second))
system.mem_ctrl.dram.readBursts                   689                       # Number of DRAM read bursts (Count)
system.mem_ctrl.dram.writeBursts                  707                       # Number of DRAM write bursts (Count)
system.mem_ctrl.dram.perBankRdBursts::0            34                       # Per bank write bursts (Count)
system.mem_ctrl.dram.perBankRdBursts::1            21                       # Per bank write bursts (Count)
system.mem_ctrl.dram.perBankRdBursts::2            72                       # Per bank write bursts (Count)
system.mem_ctrl.dram.perBankRdBursts::3           149                       # Per bank write bursts (Count)
system.mem_ctrl.dram.perBankRdBursts::4            61                       # Per bank write bursts (Count)
system.mem_ctrl.dram.perBankRdBursts::5            40                       # Per bank write bursts (Count)
system.mem_ctrl.dram.perBankRdBursts::6            18                       # Per bank write bursts (Count)
system.mem_ctrl.dram.perBankRdBursts::7             5                       # Per bank write bursts (Count)
system.mem_ctrl.dram.perBankRdBursts::8            23                       # Per bank write bursts (Count)
system.mem_ctrl.dram.perBankRdBursts::9            30                       # Per bank write bursts (Count)
system.mem_ctrl.dram.perBankRdBursts::10           18                       # Per bank write bursts (Count)
system.mem_ctrl.dram.perBankRdBursts::11          109                       # Per bank write bursts (Count)
system.mem_ctrl.dram.perBankRdBursts::12           19                       # Per bank write bursts (Count)
system.mem_ctrl.dram.perBankRdBursts::13           13                       # Per bank write bursts (Count)
system.mem_ctrl.dram.perBankRdBursts::14           40                       # Per bank write bursts (Count)
system.mem_ctrl.dram.perBankRdBursts::15           37                       # Per bank write bursts (Count)
system.mem_ctrl.dram.perBankWrBursts::0           132                       # Per bank write bursts (Count)
system.mem_ctrl.dram.perBankWrBursts::1           122                       # Per bank write bursts (Count)
system.mem_ctrl.dram.perBankWrBursts::2           122                       # Per bank write bursts (Count)
system.mem_ctrl.dram.perBankWrBursts::3            55                       # Per bank write bursts (Count)
system.mem_ctrl.dram.perBankWrBursts::4             3                       # Per bank write bursts (Count)
system.mem_ctrl.dram.perBankWrBursts::5             4                       # Per bank write bursts (Count)
system.mem_ctrl.dram.perBankWrBursts::6             3                       # Per bank write bursts (Count)
system.mem_ctrl.dram.perBankWrBursts::7             1                       # Per bank write bursts (Count)
system.mem_ctrl.dram.perBankWrBursts::8             4                       # Per bank write bursts (Count)
system.mem_ctrl.dram.perBankWrBursts::9            11                       # Per bank write bursts (Count)
system.mem_ctrl.dram.perBankWrBursts::10            4                       # Per bank write bursts (Count)
system.mem_ctrl.dram.perBankWrBursts::11           45                       # Per bank write bursts (Count)
system.mem_ctrl.dram.perBankWrBursts::12            9                       # Per bank write bursts (Count)
system.mem_ctrl.dram.perBankWrBursts::13            3                       # Per bank write bursts (Count)
system.mem_ctrl.dram.perBankWrBursts::14           37                       # Per bank write bursts (Count)
system.mem_ctrl.dram.perBankWrBursts::15          152                       # Per bank write bursts (Count)
system.mem_ctrl.dram.totQLat                 13315500                       # Total ticks spent queuing (Tick)
system.mem_ctrl.dram.totBusLat                3445000                       # Total ticks spent in databus transfers (Tick)
system.mem_ctrl.dram.totMemAccLat            26234250                       # Total ticks spent from burst creation until serviced by the DRAM (Tick)
system.mem_ctrl.dram.avgQLat                 19325.83                       # Average queueing delay per DRAM burst ((Tick/Count))
system.mem_ctrl.dram.avgBusLat                5000.00                       # Average bus latency per DRAM burst ((Tick/Count))
system.mem_ctrl.dram.avgMemAccLat            38075.83                       # Average memory access latency per DRAM burst ((Tick/Count))
system.mem_ctrl.dram.readRowHits                  541                       # Number of row buffer hits during reads (Count)
system.mem_ctrl.dram.writeRowHits                 607                       # Number of row buffer hits during writes (Count)
system.mem_ctrl.dram.readRowHitRate             78.52                       # Row buffer hit rate for reads (Ratio)
system.mem_ctrl.dram.writeRowHitRate            85.86                       # Row buffer hit rate for writes (Ratio)
system.mem_ctrl.dram.bytesPerActivate::samples          233                       # Bytes accessed per row activation (Byte)
system.mem_ctrl.dram.bytesPerActivate::mean   366.695279                       # Bytes accessed per row activation (Byte)
system.mem_ctrl.dram.bytesPerActivate::gmean   224.297550                       # Bytes accessed per row activation (Byte)
system.mem_ctrl.dram.bytesPerActivate::stdev   346.336015                       # Bytes accessed per row activation (Byte)
system.mem_ctrl.dram.bytesPerActivate::0-127           68     29.18%     29.18% # Bytes accessed per row activation (Byte)
system.mem_ctrl.dram.bytesPerActivate::128-255           48     20.60%     49.79% # Bytes accessed per row activation (Byte)
system.mem_ctrl.dram.bytesPerActivate::256-383           32     13.73%     63.52% # Bytes accessed per row activation (Byte)
system.mem_ctrl.dram.bytesPerActivate::384-511           21      9.01%     72.53% # Bytes accessed per row activation (Byte)
system.mem_ctrl.dram.bytesPerActivate::512-639           11      4.72%     77.25% # Bytes accessed per row activation (Byte)
system.mem_ctrl.dram.bytesPerActivate::640-767            4      1.72%     78.97% # Bytes accessed per row activation (Byte)
system.mem_ctrl.dram.bytesPerActivate::768-895            7      3.00%     81.97% # Bytes accessed per row activation (Byte)
system.mem_ctrl.dram.bytesPerActivate::896-1023            9      3.86%     85.84% # Bytes accessed per row activation (Byte)
system.mem_ctrl.dram.bytesPerActivate::1024-1151           33     14.16%    100.00% # Bytes accessed per row activation (Byte)
system.mem_ctrl.dram.bytesPerActivate::total          233                       # Bytes accessed per row activation (Byte)
system.mem_ctrl.dram.bytesRead                  44096                       # Total number of bytes read from DRAM (Byte)
system.mem_ctrl.dram.bytesWritten               45248                       # Total number of bytes written to DRAM (Byte)
system.mem_ctrl.dram.avgRdBW                76.895042                       # Average DRAM read bandwidth in MiBytes/s ((Byte/Second))
system.mem_ctrl.dram.avgWrBW                78.903911                       # Average DRAM write bandwidth in MiBytes/s ((Byte/Second))
system.mem_ctrl.dram.peakBW                  12800.00                       # Theoretical peak bandwidth in MiByte/s ((Byte/Second))
system.mem_ctrl.dram.busUtil                     1.22                       # Data bus utilization in percentage (Ratio)
system.mem_ctrl.dram.busUtilRead                 0.60                       # Data bus utilization in percentage for reads (Ratio)
system.mem_ctrl.dram.busUtilWrite                0.62                       # Data bus utilization in percentage for writes (Ratio)
system.mem_ctrl.dram.pageHitRate                82.23                       # Row buffer hit rate, read and write combined (Ratio)
system.mem_ctrl.dram.power_state.pwrStateResidencyTicks::UNDEFINED    573457000                       # Cumulative time (in ticks) in various power states (Tick)
system.mem_ctrl.dram.rank0.actEnergy           985320                       # Energy for activate commands per rank (pJ) (Joule)
system.mem_ctrl.dram.rank0.preEnergy           497145                       # Energy for precharge commands per rank (pJ) (Joule)
system.mem_ctrl.dram.rank0.readEnergy         2856000                       # Energy for read commands per rank (pJ) (Joule)
system.mem_ctrl.dram.rank0.writeEnergy        2307240                       # Energy for write commands per rank (pJ) (Joule)
system.mem_ctrl.dram.rank0.refreshEnergy 44868720.000000                       # Energy for refresh commands per rank (pJ) (Joule)
system.mem_ctrl.dram.rank0.actBackEnergy     34613820                       # Energy for active background per rank (pJ) (Joule)
system.mem_ctrl.dram.rank0.preBackEnergy    191058720                       # Energy for precharge background per rank (pJ) (Joule)
system.mem_ctrl.dram.rank0.actPowerDownEnergy            0                       # Energy for active power-down per rank (pJ) (Joule)
system.mem_ctrl.dram.rank0.prePowerDownEnergy            0                       # Energy for precharge power-down per rank (pJ) (Joule)
system.mem_ctrl.dram.rank0.selfRefreshEnergy            0                       # Energy for self refresh per rank (pJ) (Joule)
system.mem_ctrl.dram.rank0.totalEnergy      277186965                       # Total energy per rank (pJ) (Joule)
system.mem_ctrl.dram.rank0.averagePower    483.361377                       # Core power per rank (mW) (Watt)
system.mem_ctrl.dram.rank0.totalIdleTime            0                       # Total Idle time Per DRAM Rank (Tick)
system.mem_ctrl.dram.rank0.pwrStateTime::IDLE    496405250                       # Time in different power states (Tick)
system.mem_ctrl.dram.rank0.pwrStateTime::REF     18980000                       # Time in different power states (Tick)
system.mem_ctrl.dram.rank0.pwrStateTime::SREF            0                       # Time in different power states (Tick)
system.mem_ctrl.dram.rank0.pwrStateTime::PRE_PDN            0                       # Time in different power states (Tick)
system.mem_ctrl.dram.rank0.pwrStateTime::ACT     58071750                       # Time in different power states (Tick)
system.mem_ctrl.dram.rank0.pwrStateTime::ACT_PDN            0                       # Time in different power states (Tick)
system.mem_ctrl.dram.rank1.actEnergy           785400                       # Energy for activate commands per rank (pJ) (Joule)
system.mem_ctrl.dram.rank1.preEnergy           387090                       # Energy for precharge commands per rank (pJ) (Joule)
system.mem_ctrl.dram.rank1.readEnergy         2063460                       # Energy for read commands per rank (pJ) (Joule)
system.mem_ctrl.dram.rank1.writeEnergy        1383300                       # Energy for write commands per rank (pJ) (Joule)
system.mem_ctrl.dram.rank1.refreshEnergy 44868720.000000                       # Energy for refresh commands per rank (pJ) (Joule)
system.mem_ctrl.dram.rank1.actBackEnergy     39915390                       # Energy for active background per rank (pJ) (Joule)
system.mem_ctrl.dram.rank1.preBackEnergy    186594240                       # Energy for precharge background per rank (pJ) (Joule)
system.mem_ctrl.dram.rank1.actPowerDownEnergy            0                       # Energy for active power-down per rank (pJ) (Joule)
system.mem_ctrl.dram.rank1.prePowerDownEnergy            0                       # Energy for precharge power-down per rank (pJ) (Joule)
system.mem_ctrl.dram.rank1.selfRefreshEnergy            0                       # Energy for self refresh per rank (pJ) (Joule)
system.mem_ctrl.dram.rank1.totalEnergy      275997600                       # Total energy per rank (pJ) (Joule)
system.mem_ctrl.dram.rank1.averagePower    481.287350                       # Core power per rank (mW) (Watt)
system.mem_ctrl.dram.rank1.totalIdleTime            0                       # Total Idle time Per DRAM Rank (Tick)
system.mem_ctrl.dram.rank1.pwrStateTime::IDLE    484664750                       # Time in different power states (Tick)
system.mem_ctrl.dram.rank1.pwrStateTime::REF     18980000                       # Time in different power states (Tick)
system.mem_ctrl.dram.rank1.pwrStateTime::SREF            0                       # Time in different power states (Tick)
system.mem_ctrl.dram.rank1.pwrStateTime::PRE_PDN            0                       # Time in different power states (Tick)
system.mem_ctrl.dram.rank1.pwrStateTime::ACT     69812250                       # Time in different power states (Tick)
system.mem_ctrl.dram.rank1.pwrStateTime::ACT_PDN            0                       # Time in different power states (Tick)
system.mem_ctrl.power_state.pwrStateResidencyTicks::UNDEFINED    573457000                       # Cumulative time (in ticks) in various power states (Tick)
system.workload.inst.arm                            0                       # number of arm instructions executed (Count)
system.workload.inst.quiesce                        0                       # number of quiesce instructions executed (Count)

---------- End Simulation Statistics   ----------
