
---------- Begin Simulation Statistics ----------
simSeconds                                   0.003147                       # Number of seconds simulated (Second)
simTicks                                   3146708000                       # Number of ticks simulated (Tick)
finalTick                                  6224106000                       # Number of ticks from beginning of simulation (restored from checkpoints and never reset) (Tick)
simFreq                                  1000000000000                       # The number of ticks per simulated second ((Tick/Second))
hostSeconds                                     20.28                       # Real time elapsed on the host (Second)
hostTickRate                                155168865                       # The number of ticks simulated per host second (ticks/s) ((Tick/Second))
hostMemory                                    9646240                       # Number of bytes of host memory used (Byte)
simInsts                                      6451887                       # Number of instructions simulated (Count)
simOps                                       12338277                       # Number of ops (including micro ops) simulated (Count)
hostInstRate                                   318149                       # Simulator instruction rate (inst/s) ((Count/Second))
hostOpRate                                     608413                       # Simulator op (including micro ops) rate (op/s) ((Count/Second))
system.caches.delayHistogram::bucket_size            8                       # delay histogram for all message (Unspecified)
system.caches.delayHistogram::max_bucket           79                       # delay histogram for all message (Unspecified)
system.caches.delayHistogram::samples          109744                       # delay histogram for all message (Unspecified)
system.caches.delayHistogram::mean           0.338788                       # delay histogram for all message (Unspecified)
system.caches.delayHistogram::stdev          1.517065                       # delay histogram for all message (Unspecified)
system.caches.delayHistogram             |      109331     99.62%     99.62% |         215      0.20%     99.82% |         180      0.16%     99.98% |          12      0.01%     99.99% |           5      0.00%    100.00% |           1      0.00%    100.00% |           0      0.00%    100.00% |           0      0.00%    100.00% |           0      0.00%    100.00% |           0      0.00%    100.00% # delay histogram for all message (Unspecified)
system.caches.delayHistogram::total            109744                       # delay histogram for all message (Unspecified)
system.caches.m_outstandReqHistSeqr::bucket_size            1                       (Unspecified)
system.caches.m_outstandReqHistSeqr::max_bucket            9                       (Unspecified)
system.caches.m_outstandReqHistSeqr::samples      1048593                       (Unspecified)
system.caches.m_outstandReqHistSeqr::mean     1.000031                       (Unspecified)
system.caches.m_outstandReqHistSeqr::gmean     1.000022                       (Unspecified)
system.caches.m_outstandReqHistSeqr::stdev     0.005777                       (Unspecified)
system.caches.m_outstandReqHistSeqr      |           0      0.00%      0.00% |     1048561    100.00%    100.00% |          31      0.00%    100.00% |           1      0.00%    100.00% |           0      0.00%    100.00% |           0      0.00%    100.00% |           0      0.00%    100.00% |           0      0.00%    100.00% |           0      0.00%    100.00% |           0      0.00%    100.00% (Unspecified)
system.caches.m_outstandReqHistSeqr::total      1048593                       (Unspecified)
system.caches.m_latencyHistSeqr::bucket_size           16                       (Unspecified)
system.caches.m_latencyHistSeqr::max_bucket          159                       (Unspecified)
system.caches.m_latencyHistSeqr::samples      1048591                       (Unspecified)
system.caches.m_latencyHistSeqr::mean        1.001028                       (Unspecified)
system.caches.m_latencyHistSeqr::gmean       1.000069                       (Unspecified)
system.caches.m_latencyHistSeqr::stdev       0.270548                       (Unspecified)
system.caches.m_latencyHistSeqr          |     1048573    100.00%    100.00% |           2      0.00%    100.00% |           0      0.00%    100.00% |          14      0.00%    100.00% |           0      0.00%    100.00% |           1      0.00%    100.00% |           0      0.00%    100.00% |           0      0.00%    100.00% |           0      0.00%    100.00% |           1      0.00%    100.00% (Unspecified)
system.caches.m_latencyHistSeqr::total        1048591                       (Unspecified)
system.caches.m_hitLatencyHistSeqr::bucket_size            1                       (Unspecified)
system.caches.m_hitLatencyHistSeqr::max_bucket            9                       (Unspecified)
system.caches.m_hitLatencyHistSeqr::samples      1048573                       (Unspecified)
system.caches.m_hitLatencyHistSeqr::mean            1                       (Unspecified)
system.caches.m_hitLatencyHistSeqr::gmean            1                       (Unspecified)
system.caches.m_hitLatencyHistSeqr       |           0      0.00%      0.00% |     1048573    100.00%    100.00% |           0      0.00%    100.00% |           0      0.00%    100.00% |           0      0.00%    100.00% |           0      0.00%    100.00% |           0      0.00%    100.00% |           0      0.00%    100.00% |           0      0.00%    100.00% |           0      0.00%    100.00% (Unspecified)
system.caches.m_hitLatencyHistSeqr::total      1048573                       (Unspecified)
system.caches.m_missLatencyHistSeqr::bucket_size           16                       (Unspecified)
system.caches.m_missLatencyHistSeqr::max_bucket          159                       (Unspecified)
system.caches.m_missLatencyHistSeqr::samples           18                       (Unspecified)
system.caches.m_missLatencyHistSeqr::mean    60.888889                       (Unspecified)
system.caches.m_missLatencyHistSeqr::gmean    56.971827                       (Unspecified)
system.caches.m_missLatencyHistSeqr::stdev    26.782103                       (Unspecified)
system.caches.m_missLatencyHistSeqr      |           0      0.00%      0.00% |           2     11.11%     11.11% |           0      0.00%     11.11% |          14     77.78%     88.89% |           0      0.00%     88.89% |           1      5.56%     94.44% |           0      0.00%     94.44% |           0      0.00%     94.44% |           0      0.00%     94.44% |           1      5.56%    100.00% (Unspecified)
system.caches.m_missLatencyHistSeqr::total           18                       (Unspecified)
system.caches.delayVCHist.vnet_1::bucket_size            1                       # delay histogram for vnet_1 (Unspecified)
system.caches.delayVCHist.vnet_1::max_bucket            9                       # delay histogram for vnet_1 (Unspecified)
system.caches.delayVCHist.vnet_1::samples        55128                       # delay histogram for vnet_1 (Unspecified)
system.caches.delayVCHist.vnet_1::mean       0.045240                       # delay histogram for vnet_1 (Unspecified)
system.caches.delayVCHist.vnet_1::stdev      0.491611                       # delay histogram for vnet_1 (Unspecified)
system.caches.delayVCHist.vnet_1         |       54556     98.96%     98.96% |           0      0.00%     98.96% |         202      0.37%     99.33% |           0      0.00%     99.33% |         141      0.26%     99.58% |           0      0.00%     99.58% |         153      0.28%     99.86% |           0      0.00%     99.86% |          76      0.14%    100.00% |           0      0.00%    100.00% # delay histogram for vnet_1 (Unspecified)
system.caches.delayVCHist.vnet_1::total         55128                       # delay histogram for vnet_1 (Unspecified)
system.caches.delayVCHist.vnet_2::bucket_size            8                       # delay histogram for vnet_2 (Unspecified)
system.caches.delayVCHist.vnet_2::max_bucket           79                       # delay histogram for vnet_2 (Unspecified)
system.caches.delayVCHist.vnet_2::samples        54616                       # delay histogram for vnet_2 (Unspecified)
system.caches.delayVCHist.vnet_2::mean       0.635089                       # delay histogram for vnet_2 (Unspecified)
system.caches.delayVCHist.vnet_2::stdev      2.050821                       # delay histogram for vnet_2 (Unspecified)
system.caches.delayVCHist.vnet_2         |       54279     99.38%     99.38% |         139      0.25%     99.64% |         180      0.33%     99.97% |          12      0.02%     99.99% |           5      0.01%    100.00% |           1      0.00%    100.00% |           0      0.00%    100.00% |           0      0.00%    100.00% |           0      0.00%    100.00% |           0      0.00%    100.00% # delay histogram for vnet_2 (Unspecified)
system.caches.delayVCHist.vnet_2::total         54616                       # delay histogram for vnet_2 (Unspecified)
system.caches.L1Cache_Controller.Load         1520138      0.00%      0.00% (Unspecified)
system.caches.L1Cache_Controller.Ifetch        278062      0.00%      0.00% (Unspecified)
system.caches.L1Cache_Controller.Store         208783      0.00%      0.00% (Unspecified)
system.caches.L1Cache_Controller.Data           55128      0.00%      0.00% (Unspecified)
system.caches.L1Cache_Controller.Replacement        54618      0.00%      0.00% (Unspecified)
system.caches.L1Cache_Controller.Writeback_Ack        54616      0.00%      0.00% (Unspecified)
system.caches.L1Cache_Controller.I.Load         29813      0.00%      0.00% (Unspecified)
system.caches.L1Cache_Controller.I.Ifetch        18669      0.00%      0.00% (Unspecified)
system.caches.L1Cache_Controller.I.Store         6648      0.00%      0.00% (Unspecified)
system.caches.L1Cache_Controller.M.Load       1490325      0.00%      0.00% (Unspecified)
system.caches.L1Cache_Controller.M.Ifetch       259393      0.00%      0.00% (Unspecified)
system.caches.L1Cache_Controller.M.Store       202135      0.00%      0.00% (Unspecified)
system.caches.L1Cache_Controller.M.Replacement        54618      0.00%      0.00% (Unspecified)
system.caches.L1Cache_Controller.MI.Writeback_Ack        54616      0.00%      0.00% (Unspecified)
system.caches.L1Cache_Controller.IS.Data        48480      0.00%      0.00% (Unspecified)
system.caches.L1Cache_Controller.IM.Data         6648      0.00%      0.00% (Unspecified)
system.caches.Directory_Controller.GETX         55128      0.00%      0.00% (Unspecified)
system.caches.Directory_Controller.PUTX         54617      0.00%      0.00% (Unspecified)
system.caches.Directory_Controller.Memory_Data        55128      0.00%      0.00% (Unspecified)
system.caches.Directory_Controller.Memory_Ack        54616      0.00%      0.00% (Unspecified)
system.caches.Directory_Controller.I.GETX        55128      0.00%      0.00% (Unspecified)
system.caches.Directory_Controller.M.PUTX        54617      0.00%      0.00% (Unspecified)
system.caches.Directory_Controller.IM.Memory_Data        55128      0.00%      0.00% (Unspecified)
system.caches.Directory_Controller.MI.Memory_Ack        54616      0.00%      0.00% (Unspecified)
system.caches.MachineType.Directory.miss_mach_latency_hist_seqr::bucket_size           16                       (Unspecified)
system.caches.MachineType.Directory.miss_mach_latency_hist_seqr::max_bucket          159                       (Unspecified)
system.caches.MachineType.Directory.miss_mach_latency_hist_seqr::samples           18                       (Unspecified)
system.caches.MachineType.Directory.miss_mach_latency_hist_seqr::mean    60.888889                       (Unspecified)
system.caches.MachineType.Directory.miss_mach_latency_hist_seqr::gmean    56.971827                       (Unspecified)
system.caches.MachineType.Directory.miss_mach_latency_hist_seqr::stdev    26.782103                       (Unspecified)
system.caches.MachineType.Directory.miss_mach_latency_hist_seqr |           0      0.00%      0.00% |           2     11.11%     11.11% |           0      0.00%     11.11% |          14     77.78%     88.89% |           0      0.00%     88.89% |           1      5.56%     94.44% |           0      0.00%     94.44% |           0      0.00%     94.44% |           0      0.00%     94.44% |           1      5.56%    100.00% (Unspecified)
system.caches.MachineType.Directory.miss_mach_latency_hist_seqr::total           18                       (Unspecified)
system.caches.MachineType.Directory.incomplete_times_seqr        55127                       (Unspecified)
system.caches.RequestType.LD.latency_hist_seqr::bucket_size           16                       (Unspecified)
system.caches.RequestType.LD.latency_hist_seqr::max_bucket          159                       (Unspecified)
system.caches.RequestType.LD.latency_hist_seqr::samples      1048576                       (Unspecified)
system.caches.RequestType.LD.latency_hist_seqr::mean     1.000923                       (Unspecified)
system.caches.RequestType.LD.latency_hist_seqr::gmean     1.000059                       (Unspecified)
system.caches.RequestType.LD.latency_hist_seqr::stdev     0.262329                       (Unspecified)
system.caches.RequestType.LD.latency_hist_seqr |     1048561    100.00%    100.00% |           0      0.00%    100.00% |           0      0.00%    100.00% |          13      0.00%    100.00% |           0      0.00%    100.00% |           1      0.00%    100.00% |           0      0.00%    100.00% |           0      0.00%    100.00% |           0      0.00%    100.00% |           1      0.00%    100.00% (Unspecified)
system.caches.RequestType.LD.latency_hist_seqr::total      1048576                       (Unspecified)
system.caches.RequestType.LD.hit_latency_hist_seqr::bucket_size            1                       (Unspecified)
system.caches.RequestType.LD.hit_latency_hist_seqr::max_bucket            9                       (Unspecified)
system.caches.RequestType.LD.hit_latency_hist_seqr::samples      1048561                       (Unspecified)
system.caches.RequestType.LD.hit_latency_hist_seqr::mean            1                       (Unspecified)
system.caches.RequestType.LD.hit_latency_hist_seqr::gmean            1                       (Unspecified)
system.caches.RequestType.LD.hit_latency_hist_seqr |           0      0.00%      0.00% |     1048561    100.00%    100.00% |           0      0.00%    100.00% |           0      0.00%    100.00% |           0      0.00%    100.00% |           0      0.00%    100.00% |           0      0.00%    100.00% |           0      0.00%    100.00% |           0      0.00%    100.00% |           0      0.00%    100.00% (Unspecified)
system.caches.RequestType.LD.hit_latency_hist_seqr::total      1048561                       (Unspecified)
system.caches.RequestType.LD.miss_latency_hist_seqr::bucket_size           16                       (Unspecified)
system.caches.RequestType.LD.miss_latency_hist_seqr::max_bucket          159                       (Unspecified)
system.caches.RequestType.LD.miss_latency_hist_seqr::samples           15                       (Unspecified)
system.caches.RequestType.LD.miss_latency_hist_seqr::mean    65.533333                       (Unspecified)
system.caches.RequestType.LD.miss_latency_hist_seqr::gmean    62.629572                       (Unspecified)
system.caches.RequestType.LD.miss_latency_hist_seqr::stdev    26.310961                       (Unspecified)
system.caches.RequestType.LD.miss_latency_hist_seqr |           0      0.00%      0.00% |           0      0.00%      0.00% |           0      0.00%      0.00% |          13     86.67%     86.67% |           0      0.00%     86.67% |           1      6.67%     93.33% |           0      0.00%     93.33% |           0      0.00%     93.33% |           0      0.00%     93.33% |           1      6.67%    100.00% (Unspecified)
system.caches.RequestType.LD.miss_latency_hist_seqr::total           15                       (Unspecified)
system.caches.RequestType.ST.latency_hist_seqr::bucket_size            1                       (Unspecified)
system.caches.RequestType.ST.latency_hist_seqr::max_bucket            9                       (Unspecified)
system.caches.RequestType.ST.latency_hist_seqr::samples            1                       (Unspecified)
system.caches.RequestType.ST.latency_hist_seqr::mean            1                       (Unspecified)
system.caches.RequestType.ST.latency_hist_seqr::gmean            1                       (Unspecified)
system.caches.RequestType.ST.latency_hist_seqr::stdev          nan                       (Unspecified)
system.caches.RequestType.ST.latency_hist_seqr |           0      0.00%      0.00% |           1    100.00%    100.00% |           0      0.00%    100.00% |           0      0.00%    100.00% |           0      0.00%    100.00% |           0      0.00%    100.00% |           0      0.00%    100.00% |           0      0.00%    100.00% |           0      0.00%    100.00% |           0      0.00%    100.00% (Unspecified)
system.caches.RequestType.ST.latency_hist_seqr::total            1                       (Unspecified)
system.caches.RequestType.ST.hit_latency_hist_seqr::bucket_size            1                       (Unspecified)
system.caches.RequestType.ST.hit_latency_hist_seqr::max_bucket            9                       (Unspecified)
system.caches.RequestType.ST.hit_latency_hist_seqr::samples            1                       (Unspecified)
system.caches.RequestType.ST.hit_latency_hist_seqr::mean            1                       (Unspecified)
system.caches.RequestType.ST.hit_latency_hist_seqr::gmean            1                       (Unspecified)
system.caches.RequestType.ST.hit_latency_hist_seqr::stdev          nan                       (Unspecified)
system.caches.RequestType.ST.hit_latency_hist_seqr |           0      0.00%      0.00% |           1    100.00%    100.00% |           0      0.00%    100.00% |           0      0.00%    100.00% |           0      0.00%    100.00% |           0      0.00%    100.00% |           0      0.00%    100.00% |           0      0.00%    100.00% |           0      0.00%    100.00% |           0      0.00%    100.00% (Unspecified)
system.caches.RequestType.ST.hit_latency_hist_seqr::total            1                       (Unspecified)
system.caches.RequestType.IFETCH.latency_hist_seqr::bucket_size            8                       (Unspecified)
system.caches.RequestType.IFETCH.latency_hist_seqr::max_bucket           79                       (Unspecified)
system.caches.RequestType.IFETCH.latency_hist_seqr::samples           14                       (Unspecified)
system.caches.RequestType.IFETCH.latency_hist_seqr::mean     8.857143                       (Unspecified)
system.caches.RequestType.IFETCH.latency_hist_seqr::gmean     2.148605                       (Unspecified)
system.caches.RequestType.IFETCH.latency_hist_seqr::stdev    16.938155                       (Unspecified)
system.caches.RequestType.IFETCH.latency_hist_seqr |          11     78.57%     78.57% |           0      0.00%     78.57% |           0      0.00%     78.57% |           2     14.29%     92.86% |           0      0.00%     92.86% |           0      0.00%     92.86% |           0      0.00%     92.86% |           1      7.14%    100.00% |           0      0.00%    100.00% |           0      0.00%    100.00% (Unspecified)
system.caches.RequestType.IFETCH.latency_hist_seqr::total           14                       (Unspecified)
system.caches.RequestType.IFETCH.hit_latency_hist_seqr::bucket_size            1                       (Unspecified)
system.caches.RequestType.IFETCH.hit_latency_hist_seqr::max_bucket            9                       (Unspecified)
system.caches.RequestType.IFETCH.hit_latency_hist_seqr::samples           11                       (Unspecified)
system.caches.RequestType.IFETCH.hit_latency_hist_seqr::mean            1                       (Unspecified)
system.caches.RequestType.IFETCH.hit_latency_hist_seqr::gmean            1                       (Unspecified)
system.caches.RequestType.IFETCH.hit_latency_hist_seqr |           0      0.00%      0.00% |          11    100.00%    100.00% |           0      0.00%    100.00% |           0      0.00%    100.00% |           0      0.00%    100.00% |           0      0.00%    100.00% |           0      0.00%    100.00% |           0      0.00%    100.00% |           0      0.00%    100.00% |           0      0.00%    100.00% (Unspecified)
system.caches.RequestType.IFETCH.hit_latency_hist_seqr::total           11                       (Unspecified)
system.caches.RequestType.IFETCH.miss_latency_hist_seqr::bucket_size            8                       (Unspecified)
system.caches.RequestType.IFETCH.miss_latency_hist_seqr::max_bucket           79                       (Unspecified)
system.caches.RequestType.IFETCH.miss_latency_hist_seqr::samples            3                       (Unspecified)
system.caches.RequestType.IFETCH.miss_latency_hist_seqr::mean    37.666667                       (Unspecified)
system.caches.RequestType.IFETCH.miss_latency_hist_seqr::gmean    35.486539                       (Unspecified)
system.caches.RequestType.IFETCH.miss_latency_hist_seqr::stdev    16.743158                       (Unspecified)
system.caches.RequestType.IFETCH.miss_latency_hist_seqr |           0      0.00%      0.00% |           0      0.00%      0.00% |           0      0.00%      0.00% |           2     66.67%     66.67% |           0      0.00%     66.67% |           0      0.00%     66.67% |           0      0.00%     66.67% |           1     33.33%    100.00% |           0      0.00%    100.00% |           0      0.00%    100.00% (Unspecified)
system.caches.RequestType.IFETCH.miss_latency_hist_seqr::total            3                       (Unspecified)
system.caches.RequestTypeMachineType.LD.Directory.miss_type_mach_latency_hist_seqr::bucket_size           16                       (Unspecified)
system.caches.RequestTypeMachineType.LD.Directory.miss_type_mach_latency_hist_seqr::max_bucket          159                       (Unspecified)
system.caches.RequestTypeMachineType.LD.Directory.miss_type_mach_latency_hist_seqr::samples           15                       (Unspecified)
system.caches.RequestTypeMachineType.LD.Directory.miss_type_mach_latency_hist_seqr::mean    65.533333                       (Unspecified)
system.caches.RequestTypeMachineType.LD.Directory.miss_type_mach_latency_hist_seqr::gmean    62.629572                       (Unspecified)
system.caches.RequestTypeMachineType.LD.Directory.miss_type_mach_latency_hist_seqr::stdev    26.310961                       (Unspecified)
system.caches.RequestTypeMachineType.LD.Directory.miss_type_mach_latency_hist_seqr |           0      0.00%      0.00% |           0      0.00%      0.00% |           0      0.00%      0.00% |          13     86.67%     86.67% |           0      0.00%     86.67% |           1      6.67%     93.33% |           0      0.00%     93.33% |           0      0.00%     93.33% |           0      0.00%     93.33% |           1      6.67%    100.00% (Unspecified)
system.caches.RequestTypeMachineType.LD.Directory.miss_type_mach_latency_hist_seqr::total           15                       (Unspecified)
system.caches.RequestTypeMachineType.IFETCH.Directory.miss_type_mach_latency_hist_seqr::bucket_size            8                       (Unspecified)
system.caches.RequestTypeMachineType.IFETCH.Directory.miss_type_mach_latency_hist_seqr::max_bucket           79                       (Unspecified)
system.caches.RequestTypeMachineType.IFETCH.Directory.miss_type_mach_latency_hist_seqr::samples            3                       (Unspecified)
system.caches.RequestTypeMachineType.IFETCH.Directory.miss_type_mach_latency_hist_seqr::mean    37.666667                       (Unspecified)
system.caches.RequestTypeMachineType.IFETCH.Directory.miss_type_mach_latency_hist_seqr::gmean    35.486539                       (Unspecified)
system.caches.RequestTypeMachineType.IFETCH.Directory.miss_type_mach_latency_hist_seqr::stdev    16.743158                       (Unspecified)
system.caches.RequestTypeMachineType.IFETCH.Directory.miss_type_mach_latency_hist_seqr |           0      0.00%      0.00% |           0      0.00%      0.00% |           0      0.00%      0.00% |           2     66.67%     66.67% |           0      0.00%     66.67% |           0      0.00%     66.67% |           0      0.00%     66.67% |           1     33.33%    100.00% |           0      0.00%    100.00% |           0      0.00%    100.00% (Unspecified)
system.caches.RequestTypeMachineType.IFETCH.Directory.miss_type_mach_latency_hist_seqr::total            3                       (Unspecified)
system.caches.controllers0.delayHistogram::samples       109744                       # delay_histogram (Unspecified)
system.caches.controllers0.delayHistogram::mean     0.338788                       # delay_histogram (Unspecified)
system.caches.controllers0.delayHistogram::stdev     1.517065                       # delay_histogram (Unspecified)
system.caches.controllers0.delayHistogram::0-7       109331     99.62%     99.62% # delay_histogram (Unspecified)
system.caches.controllers0.delayHistogram::8-15          215      0.20%     99.82% # delay_histogram (Unspecified)
system.caches.controllers0.delayHistogram::16-23          180      0.16%     99.98% # delay_histogram (Unspecified)
system.caches.controllers0.delayHistogram::24-31           12      0.01%     99.99% # delay_histogram (Unspecified)
system.caches.controllers0.delayHistogram::32-39            5      0.00%    100.00% # delay_histogram (Unspecified)
system.caches.controllers0.delayHistogram::40-47            1      0.00%    100.00% # delay_histogram (Unspecified)
system.caches.controllers0.delayHistogram::total       109744                       # delay_histogram (Unspecified)
system.caches.controllers0.cacheMemory.m_demand_hits      1951853                       # Number of cache demand hits (Unspecified)
system.caches.controllers0.cacheMemory.m_demand_misses        55130                       # Number of cache demand misses (Unspecified)
system.caches.controllers0.cacheMemory.m_demand_accesses      2006983                       # Number of cache demand accesses (Unspecified)
system.caches.controllers0.forwardToCache.m_buf_msgs     0.008775                       # Average number of messages in buffer (Unspecified)
system.caches.controllers0.forwardToCache.m_stall_time  5105.902599                       # Average number of cycles messages are stalled in this MB (Unspecified)
system.caches.controllers0.mandatoryQueue.m_buf_msgs     0.374281                       # Average number of messages in buffer (Unspecified)
system.caches.controllers0.mandatoryQueue.m_stall_time  1224.686244                       # Average number of cycles messages are stalled in this MB (Unspecified)
system.caches.controllers0.power_state.pwrStateResidencyTicks::UNDEFINED   6224106000                       # Cumulative time (in ticks) in various power states (Tick)
system.caches.controllers0.requestFromCache.m_buf_msgs     0.035265                       # Average number of messages in buffer (Unspecified)
system.caches.controllers0.requestFromCache.m_stall_time  1999.999036                       # Average number of cycles messages are stalled in this MB (Unspecified)
system.caches.controllers0.responseToCache.m_buf_msgs     0.008857                       # Average number of messages in buffer (Unspecified)
system.caches.controllers0.responseToCache.m_stall_time  5009.387694                       # Average number of cycles messages are stalled in this MB (Unspecified)
system.caches.controllers1.forwardFromDir.m_buf_msgs     0.008775                       # Average number of messages in buffer (Unspecified)
system.caches.controllers1.forwardFromDir.m_stall_time   998.493760                       # Average number of cycles messages are stalled in this MB (Unspecified)
system.caches.controllers1.power_state.pwrStateResidencyTicks::UNDEFINED   6224106000                       # Cumulative time (in ticks) in various power states (Tick)
system.caches.controllers1.requestToDir.m_buf_msgs     0.017632                       # Average number of messages in buffer (Unspecified)
system.caches.controllers1.requestToDir.m_stall_time 10185.709722                       # Average number of cycles messages are stalled in this MB (Unspecified)
system.caches.controllers1.requestToMemory.m_buf_msgs     0.017634                       # Average number of messages in buffer (Unspecified)
system.caches.controllers1.requestToMemory.m_stall_time  1000.024421                       # Average number of cycles messages are stalled in this MB (Unspecified)
system.caches.controllers1.responseFromDir.m_buf_msgs     0.008857                       # Average number of messages in buffer (Unspecified)
system.caches.controllers1.responseFromDir.m_stall_time   999.988914                       # Average number of cycles messages are stalled in this MB (Unspecified)
system.caches.controllers1.responseFromMemory.m_buf_msgs     0.019784                       # Average number of messages in buffer (Unspecified)
system.caches.controllers1.responseFromMemory.m_stall_time   999.989075                       # Average number of cycles messages are stalled in this MB (Unspecified)
system.caches.network.msg_count.Control        110257                       (Unspecified)
system.caches.network.msg_byte.Control         882056                       (Unspecified)
system.caches.network.msg_count.Data           109235                       (Unspecified)
system.caches.network.msg_byte.Data           7864920                       (Unspecified)
system.caches.network.msg_count.Response_Data       110256                       (Unspecified)
system.caches.network.msg_byte.Response_Data      7938432                       (Unspecified)
system.caches.network.msg_count.Writeback_Control       109232                       (Unspecified)
system.caches.network.msg_byte.Writeback_Control       873856                       (Unspecified)
system.caches.network.int_link_buffers2.m_buf_msgs     0.000012                       # Average number of messages in buffer (Unspecified)
system.caches.network.int_link_buffers2.m_stall_time  7999.911018                       # Average number of cycles messages are stalled in this MB (Unspecified)
system.caches.network.int_link_buffers8.m_buf_msgs     0.000006                       # Average number of messages in buffer (Unspecified)
system.caches.network.int_link_buffers8.m_stall_time         3000                       # Average number of cycles messages are stalled in this MB (Unspecified)
system.caches.network.int_link_buffers9.m_buf_msgs     0.000006                       # Average number of messages in buffer (Unspecified)
system.caches.network.int_link_buffers9.m_stall_time         3000                       # Average number of cycles messages are stalled in this MB (Unspecified)
system.caches.network.power_state.pwrStateResidencyTicks::UNDEFINED   6224106000                       # Cumulative time (in ticks) in various power states (Tick)
system.caches.network.routers0.percent_links_utilized     0.002955                       (Unspecified)
system.caches.network.routers0.msg_count.Control::2        55129                       (Unspecified)
system.caches.network.routers0.msg_bytes.Control::2       441032                       (Unspecified)
system.caches.network.routers0.msg_count.Data::2        54618                       (Unspecified)
system.caches.network.routers0.msg_bytes.Data::2      3932496                       (Unspecified)
system.caches.network.routers0.msg_count.Response_Data::4        55128                       (Unspecified)
system.caches.network.routers0.msg_bytes.Response_Data::4      3969216                       (Unspecified)
system.caches.network.routers0.msg_count.Writeback_Control::3        54616                       (Unspecified)
system.caches.network.routers0.msg_bytes.Writeback_Control::3       436928                       (Unspecified)
system.caches.network.routers0.port_buffers3.m_buf_msgs     0.008775                       # Average number of messages in buffer (Unspecified)
system.caches.network.routers0.port_buffers3.m_stall_time  4107.410124                       # Average number of cycles messages are stalled in this MB (Unspecified)
system.caches.network.routers0.port_buffers4.m_buf_msgs     0.008857                       # Average number of messages in buffer (Unspecified)
system.caches.network.routers0.port_buffers4.m_stall_time  4009.400065                       # Average number of cycles messages are stalled in this MB (Unspecified)
system.caches.network.routers0.port_buffers7.m_buf_msgs     0.064109                       # Average number of messages in buffer (Unspecified)
system.caches.network.routers0.port_buffers7.m_stall_time  7185.715185                       # Average number of cycles messages are stalled in this MB (Unspecified)
system.caches.network.routers0.power_state.pwrStateResidencyTicks::UNDEFINED   6224106000                       # Cumulative time (in ticks) in various power states (Tick)
system.caches.network.routers0.throttle00.link_utilization     0.002860                       (Unspecified)
system.caches.network.routers0.throttle00.msg_count.Response_Data::4        55128                       (Unspecified)
system.caches.network.routers0.throttle00.msg_bytes.Response_Data::4      3969216                       (Unspecified)
system.caches.network.routers0.throttle00.msg_count.Writeback_Control::3        54616                       (Unspecified)
system.caches.network.routers0.throttle00.msg_bytes.Writeback_Control::3       436928                       (Unspecified)
system.caches.network.routers0.throttle01.link_utilization     0.003051                       (Unspecified)
system.caches.network.routers0.throttle01.msg_count.Control::2        55129                       (Unspecified)
system.caches.network.routers0.throttle01.msg_bytes.Control::2       441032                       (Unspecified)
system.caches.network.routers0.throttle01.msg_count.Data::2        54618                       (Unspecified)
system.caches.network.routers0.throttle01.msg_bytes.Data::2      3932496                       (Unspecified)
system.caches.network.routers1.percent_links_utilized     0.002924                       (Unspecified)
system.caches.network.routers1.msg_count.Control::2        55128                       (Unspecified)
system.caches.network.routers1.msg_bytes.Control::2       441024                       (Unspecified)
system.caches.network.routers1.msg_count.Data::2        54617                       (Unspecified)
system.caches.network.routers1.msg_bytes.Data::2      3932424                       (Unspecified)
system.caches.network.routers1.msg_count.Response_Data::4        55128                       (Unspecified)
system.caches.network.routers1.msg_bytes.Response_Data::4      3969216                       (Unspecified)
system.caches.network.routers1.msg_count.Writeback_Control::3        54616                       (Unspecified)
system.caches.network.routers1.msg_bytes.Writeback_Control::3       436928                       (Unspecified)
system.caches.network.routers1.port_buffers2.m_buf_msgs     0.017632                       # Average number of messages in buffer (Unspecified)
system.caches.network.routers1.port_buffers2.m_stall_time  9185.711650                       # Average number of cycles messages are stalled in this MB (Unspecified)
system.caches.network.routers1.port_buffers6.m_buf_msgs     0.011561                       # Average number of messages in buffer (Unspecified)
system.caches.network.routers1.port_buffers6.m_stall_time  2110.424212                       # Average number of cycles messages are stalled in this MB (Unspecified)
system.caches.network.routers1.port_buffers7.m_buf_msgs     0.009058                       # Average number of messages in buffer (Unspecified)
system.caches.network.routers1.port_buffers7.m_stall_time  2009.423843                       # Average number of cycles messages are stalled in this MB (Unspecified)
system.caches.network.routers1.power_state.pwrStateResidencyTicks::UNDEFINED   6224106000                       # Cumulative time (in ticks) in various power states (Tick)
system.caches.network.routers1.throttle00.link_utilization     0.002987                       (Unspecified)
system.caches.network.routers1.throttle00.msg_count.Control::2        55128                       (Unspecified)
system.caches.network.routers1.throttle00.msg_bytes.Control::2       441024                       (Unspecified)
system.caches.network.routers1.throttle00.msg_count.Data::2        54617                       (Unspecified)
system.caches.network.routers1.throttle00.msg_bytes.Data::2      3932424                       (Unspecified)
system.caches.network.routers1.throttle01.link_utilization     0.002860                       (Unspecified)
system.caches.network.routers1.throttle01.msg_count.Response_Data::4        55128                       (Unspecified)
system.caches.network.routers1.throttle01.msg_bytes.Response_Data::4      3969216                       (Unspecified)
system.caches.network.routers1.throttle01.msg_count.Writeback_Control::3        54616                       (Unspecified)
system.caches.network.routers1.throttle01.msg_bytes.Writeback_Control::3       436928                       (Unspecified)
system.caches.power_state.pwrStateResidencyTicks::UNDEFINED   6224106000                       # Cumulative time (in ticks) in various power states (Tick)
system.caches.sequencers.power_state.pwrStateResidencyTicks::UNDEFINED   6224106000                       # Cumulative time (in ticks) in various power states (Tick)
system.caches.sys_port_proxy.power_state.pwrStateResidencyTicks::UNDEFINED   6224106000                       # Cumulative time (in ticks) in various power states (Tick)
system.clk_domain.clock                          1000                       # Clock period in ticks (Tick)
system.clk_domain.voltage_domain.voltage            1                       # Voltage in Volts (Volt)
system.cpu.numCycles                          3146708                       # Number of cpu cycles simulated (Cycle)
system.cpu.numWorkItemsStarted                      0                       # Number of work items this cpu started (Count)
system.cpu.numWorkItemsCompleted                    0                       # Number of work items this cpu completed (Count)
system.cpu.instsAdded                         8388685                       # Number of instructions added to the IQ (excludes non-spec) (Count)
system.cpu.nonSpecInstsAdded                        3                       # Number of non-speculative instructions added to the IQ (Count)
system.cpu.instsIssued                        8388681                       # Number of instructions issued (Count)
system.cpu.squashedInstsExamined                   49                       # Number of squashed instructions iterated over during squash; mainly for profiling (Count)
system.cpu.squashedOperandsExamined                22                       # Number of squashed operands that are examined and possibly removed from graph (Count)
system.cpu.squashedNonSpecRemoved                   2                       # Number of squashed non-spec instructions that were removed (Count)
system.cpu.numIssuedDist::samples             3146708                       # Number of insts issued each cycle (Count)
system.cpu.numIssuedDist::mean               2.665859                       # Number of insts issued each cycle (Count)
system.cpu.numIssuedDist::stdev              1.333950                       # Number of insts issued each cycle (Count)
system.cpu.numIssuedDist::underflows                0      0.00%      0.00% # Number of insts issued each cycle (Count)
system.cpu.numIssuedDist::0                       922      0.03%      0.03% # Number of insts issued each cycle (Count)
system.cpu.numIssuedDist::1                    699130     22.22%     22.25% # Number of insts issued each cycle (Count)
system.cpu.numIssuedDist::2                   1048548     33.32%     55.57% # Number of insts issued each cycle (Count)
system.cpu.numIssuedDist::3                    349534     11.11%     66.68% # Number of insts issued each cycle (Count)
system.cpu.numIssuedDist::4                    699036     22.21%     88.89% # Number of insts issued each cycle (Count)
system.cpu.numIssuedDist::5                    349519     11.11%    100.00% # Number of insts issued each cycle (Count)
system.cpu.numIssuedDist::6                        19      0.00%    100.00% # Number of insts issued each cycle (Count)
system.cpu.numIssuedDist::7                         0      0.00%    100.00% # Number of insts issued each cycle (Count)
system.cpu.numIssuedDist::8                         0      0.00%    100.00% # Number of insts issued each cycle (Count)
system.cpu.numIssuedDist::overflows                 0      0.00%    100.00% # Number of insts issued each cycle (Count)
system.cpu.numIssuedDist::min_value                 0                       # Number of insts issued each cycle (Count)
system.cpu.numIssuedDist::max_value                 6                       # Number of insts issued each cycle (Count)
system.cpu.numIssuedDist::total               3146708                       # Number of insts issued each cycle (Count)
system.cpu.statFuBusy::No_OpClass                   0      0.00%      0.00% # attempts to use FU when none available (Count)
system.cpu.statFuBusy::IntAlu                       9    100.00%    100.00% # attempts to use FU when none available (Count)
system.cpu.statFuBusy::IntMult                      0      0.00%    100.00% # attempts to use FU when none available (Count)
system.cpu.statFuBusy::IntDiv                       0      0.00%    100.00% # attempts to use FU when none available (Count)
system.cpu.statFuBusy::FloatAdd                     0      0.00%    100.00% # attempts to use FU when none available (Count)
system.cpu.statFuBusy::FloatCmp                     0      0.00%    100.00% # attempts to use FU when none available (Count)
system.cpu.statFuBusy::FloatCvt                     0      0.00%    100.00% # attempts to use FU when none available (Count)
system.cpu.statFuBusy::FloatMult                    0      0.00%    100.00% # attempts to use FU when none available (Count)
system.cpu.statFuBusy::FloatMultAcc                 0      0.00%    100.00% # attempts to use FU when none available (Count)
system.cpu.statFuBusy::FloatDiv                     0      0.00%    100.00% # attempts to use FU when none available (Count)
system.cpu.statFuBusy::FloatMisc                    0      0.00%    100.00% # attempts to use FU when none available (Count)
system.cpu.statFuBusy::FloatSqrt                    0      0.00%    100.00% # attempts to use FU when none available (Count)
system.cpu.statFuBusy::SimdAdd                      0      0.00%    100.00% # attempts to use FU when none available (Count)
system.cpu.statFuBusy::SimdAddAcc                   0      0.00%    100.00% # attempts to use FU when none available (Count)
system.cpu.statFuBusy::SimdAlu                      0      0.00%    100.00% # attempts to use FU when none available (Count)
system.cpu.statFuBusy::SimdCmp                      0      0.00%    100.00% # attempts to use FU when none available (Count)
system.cpu.statFuBusy::SimdCvt                      0      0.00%    100.00% # attempts to use FU when none available (Count)
system.cpu.statFuBusy::SimdMisc                     0      0.00%    100.00% # attempts to use FU when none available (Count)
system.cpu.statFuBusy::SimdMult                     0      0.00%    100.00% # attempts to use FU when none available (Count)
system.cpu.statFuBusy::SimdMultAcc                  0      0.00%    100.00% # attempts to use FU when none available (Count)
system.cpu.statFuBusy::SimdShift                    0      0.00%    100.00% # attempts to use FU when none available (Count)
system.cpu.statFuBusy::SimdShiftAcc                 0      0.00%    100.00% # attempts to use FU when none available (Count)
system.cpu.statFuBusy::SimdDiv                      0      0.00%    100.00% # attempts to use FU when none available (Count)
system.cpu.statFuBusy::SimdSqrt                     0      0.00%    100.00% # attempts to use FU when none available (Count)
system.cpu.statFuBusy::SimdFloatAdd                 0      0.00%    100.00% # attempts to use FU when none available (Count)
system.cpu.statFuBusy::SimdFloatAlu                 0      0.00%    100.00% # attempts to use FU when none available (Count)
system.cpu.statFuBusy::SimdFloatCmp                 0      0.00%    100.00% # attempts to use FU when none available (Count)
system.cpu.statFuBusy::SimdFloatCvt                 0      0.00%    100.00% # attempts to use FU when none available (Count)
system.cpu.statFuBusy::SimdFloatDiv                 0      0.00%    100.00% # attempts to use FU when none available (Count)
system.cpu.statFuBusy::SimdFloatMisc                0      0.00%    100.00% # attempts to use FU when none available (Count)
system.cpu.statFuBusy::SimdFloatMult                0      0.00%    100.00% # attempts to use FU when none available (Count)
system.cpu.statFuBusy::SimdFloatMultAcc             0      0.00%    100.00% # attempts to use FU when none available (Count)
system.cpu.statFuBusy::SimdFloatSqrt                0      0.00%    100.00% # attempts to use FU when none available (Count)
system.cpu.statFuBusy::SimdReduceAdd                0      0.00%    100.00% # attempts to use FU when none available (Count)
system.cpu.statFuBusy::SimdReduceAlu                0      0.00%    100.00% # attempts to use FU when none available (Count)
system.cpu.statFuBusy::SimdReduceCmp                0      0.00%    100.00% # attempts to use FU when none available (Count)
system.cpu.statFuBusy::SimdFloatReduceAdd            0      0.00%    100.00% # attempts to use FU when none available (Count)
system.cpu.statFuBusy::SimdFloatReduceCmp            0      0.00%    100.00% # attempts to use FU when none available (Count)
system.cpu.statFuBusy::SimdAes                      0      0.00%    100.00% # attempts to use FU when none available (Count)
system.cpu.statFuBusy::SimdAesMix                   0      0.00%    100.00% # attempts to use FU when none available (Count)
system.cpu.statFuBusy::SimdSha1Hash                 0      0.00%    100.00% # attempts to use FU when none available (Count)
system.cpu.statFuBusy::SimdSha1Hash2                0      0.00%    100.00% # attempts to use FU when none available (Count)
system.cpu.statFuBusy::SimdSha256Hash               0      0.00%    100.00% # attempts to use FU when none available (Count)
system.cpu.statFuBusy::SimdSha256Hash2              0      0.00%    100.00% # attempts to use FU when none available (Count)
system.cpu.statFuBusy::SimdShaSigma2                0      0.00%    100.00% # attempts to use FU when none available (Count)
system.cpu.statFuBusy::SimdShaSigma3                0      0.00%    100.00% # attempts to use FU when none available (Count)
system.cpu.statFuBusy::SimdPredAlu                  0      0.00%    100.00% # attempts to use FU when none available (Count)
system.cpu.statFuBusy::MemRead                      0      0.00%    100.00% # attempts to use FU when none available (Count)
system.cpu.statFuBusy::MemWrite                     0      0.00%    100.00% # attempts to use FU when none available (Count)
system.cpu.statFuBusy::FloatMemRead                 0      0.00%    100.00% # attempts to use FU when none available (Count)
system.cpu.statFuBusy::FloatMemWrite                0      0.00%    100.00% # attempts to use FU when none available (Count)
system.cpu.statFuBusy::IprAccess                    0      0.00%    100.00% # attempts to use FU when none available (Count)
system.cpu.statFuBusy::InstPrefetch                 0      0.00%    100.00% # attempts to use FU when none available (Count)
system.cpu.statIssuedInstType_0::No_OpClass            1      0.00%      0.00% # Number of instructions issued per FU type, per thread (Count)
system.cpu.statIssuedInstType_0::IntAlu       7340093     87.50%     87.50% # Number of instructions issued per FU type, per thread (Count)
system.cpu.statIssuedInstType_0::IntMult            0      0.00%     87.50% # Number of instructions issued per FU type, per thread (Count)
system.cpu.statIssuedInstType_0::IntDiv             0      0.00%     87.50% # Number of instructions issued per FU type, per thread (Count)
system.cpu.statIssuedInstType_0::FloatAdd            0      0.00%     87.50% # Number of instructions issued per FU type, per thread (Count)
system.cpu.statIssuedInstType_0::FloatCmp            0      0.00%     87.50% # Number of instructions issued per FU type, per thread (Count)
system.cpu.statIssuedInstType_0::FloatCvt            0      0.00%     87.50% # Number of instructions issued per FU type, per thread (Count)
system.cpu.statIssuedInstType_0::FloatMult            0      0.00%     87.50% # Number of instructions issued per FU type, per thread (Count)
system.cpu.statIssuedInstType_0::FloatMultAcc            0      0.00%     87.50% # Number of instructions issued per FU type, per thread (Count)
system.cpu.statIssuedInstType_0::FloatDiv            0      0.00%     87.50% # Number of instructions issued per FU type, per thread (Count)
system.cpu.statIssuedInstType_0::FloatMisc            0      0.00%     87.50% # Number of instructions issued per FU type, per thread (Count)
system.cpu.statIssuedInstType_0::FloatSqrt            0      0.00%     87.50% # Number of instructions issued per FU type, per thread (Count)
system.cpu.statIssuedInstType_0::SimdAdd            0      0.00%     87.50% # Number of instructions issued per FU type, per thread (Count)
system.cpu.statIssuedInstType_0::SimdAddAcc            0      0.00%     87.50% # Number of instructions issued per FU type, per thread (Count)
system.cpu.statIssuedInstType_0::SimdAlu            0      0.00%     87.50% # Number of instructions issued per FU type, per thread (Count)
system.cpu.statIssuedInstType_0::SimdCmp            0      0.00%     87.50% # Number of instructions issued per FU type, per thread (Count)
system.cpu.statIssuedInstType_0::SimdCvt            0      0.00%     87.50% # Number of instructions issued per FU type, per thread (Count)
system.cpu.statIssuedInstType_0::SimdMisc            0      0.00%     87.50% # Number of instructions issued per FU type, per thread (Count)
system.cpu.statIssuedInstType_0::SimdMult            0      0.00%     87.50% # Number of instructions issued per FU type, per thread (Count)
system.cpu.statIssuedInstType_0::SimdMultAcc            0      0.00%     87.50% # Number of instructions issued per FU type, per thread (Count)
system.cpu.statIssuedInstType_0::SimdShift            0      0.00%     87.50% # Number of instructions issued per FU type, per thread (Count)
system.cpu.statIssuedInstType_0::SimdShiftAcc            0      0.00%     87.50% # Number of instructions issued per FU type, per thread (Count)
system.cpu.statIssuedInstType_0::SimdDiv            0      0.00%     87.50% # Number of instructions issued per FU type, per thread (Count)
system.cpu.statIssuedInstType_0::SimdSqrt            0      0.00%     87.50% # Number of instructions issued per FU type, per thread (Count)
system.cpu.statIssuedInstType_0::SimdFloatAdd            0      0.00%     87.50% # Number of instructions issued per FU type, per thread (Count)
system.cpu.statIssuedInstType_0::SimdFloatAlu            0      0.00%     87.50% # Number of instructions issued per FU type, per thread (Count)
system.cpu.statIssuedInstType_0::SimdFloatCmp            0      0.00%     87.50% # Number of instructions issued per FU type, per thread (Count)
system.cpu.statIssuedInstType_0::SimdFloatCvt            0      0.00%     87.50% # Number of instructions issued per FU type, per thread (Count)
system.cpu.statIssuedInstType_0::SimdFloatDiv            0      0.00%     87.50% # Number of instructions issued per FU type, per thread (Count)
system.cpu.statIssuedInstType_0::SimdFloatMisc            0      0.00%     87.50% # Number of instructions issued per FU type, per thread (Count)
system.cpu.statIssuedInstType_0::SimdFloatMult            0      0.00%     87.50% # Number of instructions issued per FU type, per thread (Count)
system.cpu.statIssuedInstType_0::SimdFloatMultAcc            0      0.00%     87.50% # Number of instructions issued per FU type, per thread (Count)
system.cpu.statIssuedInstType_0::SimdFloatSqrt            0      0.00%     87.50% # Number of instructions issued per FU type, per thread (Count)
system.cpu.statIssuedInstType_0::SimdReduceAdd            0      0.00%     87.50% # Number of instructions issued per FU type, per thread (Count)
system.cpu.statIssuedInstType_0::SimdReduceAlu            0      0.00%     87.50% # Number of instructions issued per FU type, per thread (Count)
system.cpu.statIssuedInstType_0::SimdReduceCmp            0      0.00%     87.50% # Number of instructions issued per FU type, per thread (Count)
system.cpu.statIssuedInstType_0::SimdFloatReduceAdd            0      0.00%     87.50% # Number of instructions issued per FU type, per thread (Count)
system.cpu.statIssuedInstType_0::SimdFloatReduceCmp            0      0.00%     87.50% # Number of instructions issued per FU type, per thread (Count)
system.cpu.statIssuedInstType_0::SimdAes            0      0.00%     87.50% # Number of instructions issued per FU type, per thread (Count)
system.cpu.statIssuedInstType_0::SimdAesMix            0      0.00%     87.50% # Number of instructions issued per FU type, per thread (Count)
system.cpu.statIssuedInstType_0::SimdSha1Hash            0      0.00%     87.50% # Number of instructions issued per FU type, per thread (Count)
system.cpu.statIssuedInstType_0::SimdSha1Hash2            0      0.00%     87.50% # Number of instructions issued per FU type, per thread (Count)
system.cpu.statIssuedInstType_0::SimdSha256Hash            0      0.00%     87.50% # Number of instructions issued per FU type, per thread (Count)
system.cpu.statIssuedInstType_0::SimdSha256Hash2            0      0.00%     87.50% # Number of instructions issued per FU type, per thread (Count)
system.cpu.statIssuedInstType_0::SimdShaSigma2            0      0.00%     87.50% # Number of instructions issued per FU type, per thread (Count)
system.cpu.statIssuedInstType_0::SimdShaSigma3            0      0.00%     87.50% # Number of instructions issued per FU type, per thread (Count)
system.cpu.statIssuedInstType_0::SimdPredAlu            0      0.00%     87.50% # Number of instructions issued per FU type, per thread (Count)
system.cpu.statIssuedInstType_0::MemRead      1048580     12.50%    100.00% # Number of instructions issued per FU type, per thread (Count)
system.cpu.statIssuedInstType_0::MemWrite            7      0.00%    100.00% # Number of instructions issued per FU type, per thread (Count)
system.cpu.statIssuedInstType_0::FloatMemRead            0      0.00%    100.00% # Number of instructions issued per FU type, per thread (Count)
system.cpu.statIssuedInstType_0::FloatMemWrite            0      0.00%    100.00% # Number of instructions issued per FU type, per thread (Count)
system.cpu.statIssuedInstType_0::IprAccess            0      0.00%    100.00% # Number of instructions issued per FU type, per thread (Count)
system.cpu.statIssuedInstType_0::InstPrefetch            0      0.00%    100.00% # Number of instructions issued per FU type, per thread (Count)
system.cpu.statIssuedInstType_0::total        8388681                       # Number of instructions issued per FU type, per thread (Count)
system.cpu.issueRate                         2.665859                       # Inst issue rate ((Count/Cycle))
system.cpu.fuBusy                                   9                       # FU busy when requested (Count)
system.cpu.fuBusyRate                        0.000001                       # FU busy rate (busy events/executed inst) ((Count/Count))
system.cpu.intInstQueueReads                 19924080                       # Number of integer instruction queue reads (Count)
system.cpu.intInstQueueWrites                 8388737                       # Number of integer instruction queue writes (Count)
system.cpu.intInstQueueWakeupAccesses         8388673                       # Number of integer instruction queue wakeup accesses (Count)
system.cpu.fpInstQueueReads                         0                       # Number of floating instruction queue reads (Count)
system.cpu.fpInstQueueWrites                        0                       # Number of floating instruction queue writes (Count)
system.cpu.fpInstQueueWakeupAccesses                0                       # Number of floating instruction queue wakeup accesses (Count)
system.cpu.vecInstQueueReads                        0                       # Number of vector instruction queue reads (Count)
system.cpu.vecInstQueueWrites                       0                       # Number of vector instruction queue writes (Count)
system.cpu.vecInstQueueWakeupAccesses               0                       # Number of vector instruction queue wakeup accesses (Count)
system.cpu.intAluAccesses                     8388689                       # Number of integer alu accesses (Count)
system.cpu.fpAluAccesses                            0                       # Number of floating point alu accesses (Count)
system.cpu.vecAluAccesses                           0                       # Number of vector alu accesses (Count)
system.cpu.idleCycles                               0                       # Number of cycles IEW is idle (Cycle)
system.cpu.squashCycles                             4                       # Number of cycles IEW is squashing (Cycle)
system.cpu.blockCycles                              3                       # Number of cycles IEW is blocking (Cycle)
system.cpu.unblockCycles                            0                       # Number of cycles IEW is unblocking (Cycle)
system.cpu.dispatchedInsts                    8388688                       # Number of instructions dispatched to IQ (Count)
system.cpu.dispSquashedInsts                        4                       # Number of squashed instructions skipped by dispatch (Count)
system.cpu.dispLoadInsts                      1048581                       # Number of dispatched load instructions (Count)
system.cpu.dispStoreInsts                           8                       # Number of dispatched store instructions (Count)
system.cpu.dispNonSpecInsts                         3                       # Number of dispatched non-speculative instructions (Count)
system.cpu.iqFullEvents                             0                       # Number of times the IQ has become full, causing a stall (Count)
system.cpu.lsqFullEvents                            0                       # Number of times the LSQ has become full, causing a stall (Count)
system.cpu.memOrderViolationEvents                  0                       # Number of memory order violations (Count)
system.cpu.predictedTakenIncorrect                  1                       # Number of branches that were predicted taken incorrectly (Count)
system.cpu.predictedNotTakenIncorrect               3                       # Number of branches that were predicted not taken incorrectly (Count)
system.cpu.branchMispredicts                        4                       # Number of branch mispredicts detected at execute (Count)
system.cpu.numInsts                           8388674                       # Number of executed instructions (Count)
system.cpu.numLoadInsts                       1048580                       # Number of load instructions executed (Count)
system.cpu.numSquashedInsts                         8                       # Number of squashed instructions skipped in execute (Count)
system.cpu.numSwp                                   0                       # Number of swp insts executed (Count)
system.cpu.numNop                                   0                       # Number of nop insts executed (Count)
system.cpu.numRefs                            1048586                       # Number of memory reference insts executed (Count)
system.cpu.numBranches                        1048586                       # Number of branches executed (Count)
system.cpu.numStoreInsts                            6                       # Number of stores executed (Count)
system.cpu.numRate                           2.665857                       # Inst execution rate ((Count/Cycle))
system.cpu.instsToCommit                      8388673                       # Cumulative count of insts sent to commit (Count)
system.cpu.writebackCount                     8388673                       # Cumulative count of insts written-back (Count)
system.cpu.producerInst                       7340046                       # Number of instructions producing a value (Count)
system.cpu.consumerInst                       8738165                       # Number of instructions consuming a value (Count)
system.cpu.wbRate                            2.665857                       # Insts written-back per cycle ((Count/Cycle))
system.cpu.wbFanout                          0.839999                       # Average fanout of values written-back ((Count/Count))
system.cpu.committedInsts                     4194313                       # Number of Instructions Simulated (Count)
system.cpu.committedOps                       8388625                       # Number of Ops (including micro ops) Simulated (Count)
system.cpu.cpi                               0.750232                       # CPI: Cycles Per Instruction ((Cycle/Count))
system.cpu.totalCpi                          0.750232                       # CPI: Total CPI of All Threads ((Cycle/Count))
system.cpu.ipc                               1.332921                       # IPC: Instructions Per Cycle ((Count/Cycle))
system.cpu.totalIpc                          1.332921                       # IPC: Total IPC of All Threads ((Count/Cycle))
system.cpu.intRegfileReads                    8388686                       # Number of integer regfile reads (Count)
system.cpu.intRegfileWrites                   7340079                       # Number of integer regfile writes (Count)
system.cpu.ccRegfileReads                     5242894                       # number of cc regfile reads (Count)
system.cpu.ccRegfileWrites                    4194324                       # number of cc regfile writes (Count)
system.cpu.miscRegfileReads                   3145758                       # number of misc regfile reads (Count)
system.cpu.MemDepUnit__0.insertedLoads        1048581                       # Number of loads inserted to the mem dependence unit. (Count)
system.cpu.MemDepUnit__0.insertedStores             8                       # Number of stores inserted to the mem dependence unit. (Count)
system.cpu.MemDepUnit__0.conflictingLoads            0                       # Number of conflicting loads. (Count)
system.cpu.MemDepUnit__0.conflictingStores            0                       # Number of conflicting stores. (Count)
system.cpu.MemDepUnit__1.insertedLoads              0                       # Number of loads inserted to the mem dependence unit. (Count)
system.cpu.MemDepUnit__1.insertedStores             0                       # Number of stores inserted to the mem dependence unit. (Count)
system.cpu.MemDepUnit__1.conflictingLoads            0                       # Number of conflicting loads. (Count)
system.cpu.MemDepUnit__1.conflictingStores            0                       # Number of conflicting stores. (Count)
system.cpu.MemDepUnit__2.insertedLoads              0                       # Number of loads inserted to the mem dependence unit. (Count)
system.cpu.MemDepUnit__2.insertedStores             0                       # Number of stores inserted to the mem dependence unit. (Count)
system.cpu.MemDepUnit__2.conflictingLoads            0                       # Number of conflicting loads. (Count)
system.cpu.MemDepUnit__2.conflictingStores            0                       # Number of conflicting stores. (Count)
system.cpu.MemDepUnit__3.insertedLoads              0                       # Number of loads inserted to the mem dependence unit. (Count)
system.cpu.MemDepUnit__3.insertedStores             0                       # Number of stores inserted to the mem dependence unit. (Count)
system.cpu.MemDepUnit__3.conflictingLoads            0                       # Number of conflicting loads. (Count)
system.cpu.MemDepUnit__3.conflictingStores            0                       # Number of conflicting stores. (Count)
system.cpu.branchPred.lookups                 1048597                       # Number of BP lookups (Count)
system.cpu.branchPred.condPredicted           1048582                       # Number of conditional branches predicted (Count)
system.cpu.branchPred.condIncorrect                 6                       # Number of conditional branches incorrect (Count)
system.cpu.branchPred.BTBLookups              1048589                       # Number of BTB lookups (Count)
system.cpu.branchPred.BTBHits                 1048587                       # Number of BTB hits (Count)
system.cpu.branchPred.BTBHitRatio            0.999998                       # BTB Hit Ratio (Ratio)
system.cpu.branchPred.RASUsed                       4                       # Number of times the RAS was used to get a target. (Count)
system.cpu.branchPred.RASIncorrect                  0                       # Number of incorrect RAS predictions. (Count)
system.cpu.branchPred.indirectLookups               2                       # Number of indirect predictor lookups. (Count)
system.cpu.branchPred.indirectHits                  0                       # Number of indirect target hits. (Count)
system.cpu.branchPred.indirectMisses                2                       # Number of indirect misses. (Count)
system.cpu.branchPred.indirectMispredicted            0                       # Number of mispredicted indirect branches. (Count)
system.cpu.commit.commitSquashedInsts              49                       # The number of squashed insts skipped by commit (Count)
system.cpu.commit.commitNonSpecStalls               1                       # The number of times commit has been forced to stall to communicate backwards (Count)
system.cpu.commit.branchMispredicts                 4                       # The number of times a branch was mispredicted (Count)
system.cpu.commit.numCommittedDist::samples      3146701                       # Number of insts commited each cycle (Count)
system.cpu.commit.numCommittedDist::mean     2.665848                       # Number of insts commited each cycle (Count)
system.cpu.commit.numCommittedDist::stdev     3.770944                       # Number of insts commited each cycle (Count)
system.cpu.commit.numCommittedDist::underflows            0      0.00%      0.00% # Number of insts commited each cycle (Count)
system.cpu.commit.numCommittedDist::0         2098120     66.68%     66.68% # Number of insts commited each cycle (Count)
system.cpu.commit.numCommittedDist::1               1      0.00%     66.68% # Number of insts commited each cycle (Count)
system.cpu.commit.numCommittedDist::2               0      0.00%     66.68% # Number of insts commited each cycle (Count)
system.cpu.commit.numCommittedDist::3               2      0.00%     66.68% # Number of insts commited each cycle (Count)
system.cpu.commit.numCommittedDist::4               0      0.00%     66.68% # Number of insts commited each cycle (Count)
system.cpu.commit.numCommittedDist::5               2      0.00%     66.68% # Number of insts commited each cycle (Count)
system.cpu.commit.numCommittedDist::6               0      0.00%     66.68% # Number of insts commited each cycle (Count)
system.cpu.commit.numCommittedDist::7               0      0.00%     66.68% # Number of insts commited each cycle (Count)
system.cpu.commit.numCommittedDist::8         1048576     33.32%    100.00% # Number of insts commited each cycle (Count)
system.cpu.commit.numCommittedDist::overflows            0      0.00%    100.00% # Number of insts commited each cycle (Count)
system.cpu.commit.numCommittedDist::min_value            0                       # Number of insts commited each cycle (Count)
system.cpu.commit.numCommittedDist::max_value            8                       # Number of insts commited each cycle (Count)
system.cpu.commit.numCommittedDist::total      3146701                       # Number of insts commited each cycle (Count)
system.cpu.commit.instsCommitted              4194313                       # Number of instructions committed (Count)
system.cpu.commit.opsCommitted                8388625                       # Number of ops (including micro ops) committed (Count)
system.cpu.commit.memRefs                     1048578                       # Number of memory references committed (Count)
system.cpu.commit.loads                       1048577                       # Number of loads committed (Count)
system.cpu.commit.amos                              0                       # Number of atomic instructions committed (Count)
system.cpu.commit.membars                           0                       # Number of memory barriers committed (Count)
system.cpu.commit.branches                    1048579                       # Number of branches committed (Count)
system.cpu.commit.vectorInstructions                0                       # Number of committed Vector instructions. (Count)
system.cpu.commit.floating                          0                       # Number of committed floating point instructions. (Count)
system.cpu.commit.integer                     8388623                       # Number of committed integer instructions. (Count)
system.cpu.commit.functionCalls                     1                       # Number of function calls committed. (Count)
system.cpu.commit.committedInstType_0::No_OpClass            1      0.00%      0.00% # Class of committed instruction (Count)
system.cpu.commit.committedInstType_0::IntAlu      7340046     87.50%     87.50% # Class of committed instruction (Count)
system.cpu.commit.committedInstType_0::IntMult            0      0.00%     87.50% # Class of committed instruction (Count)
system.cpu.commit.committedInstType_0::IntDiv            0      0.00%     87.50% # Class of committed instruction (Count)
system.cpu.commit.committedInstType_0::FloatAdd            0      0.00%     87.50% # Class of committed instruction (Count)
system.cpu.commit.committedInstType_0::FloatCmp            0      0.00%     87.50% # Class of committed instruction (Count)
system.cpu.commit.committedInstType_0::FloatCvt            0      0.00%     87.50% # Class of committed instruction (Count)
system.cpu.commit.committedInstType_0::FloatMult            0      0.00%     87.50% # Class of committed instruction (Count)
system.cpu.commit.committedInstType_0::FloatMultAcc            0      0.00%     87.50% # Class of committed instruction (Count)
system.cpu.commit.committedInstType_0::FloatDiv            0      0.00%     87.50% # Class of committed instruction (Count)
system.cpu.commit.committedInstType_0::FloatMisc            0      0.00%     87.50% # Class of committed instruction (Count)
system.cpu.commit.committedInstType_0::FloatSqrt            0      0.00%     87.50% # Class of committed instruction (Count)
system.cpu.commit.committedInstType_0::SimdAdd            0      0.00%     87.50% # Class of committed instruction (Count)
system.cpu.commit.committedInstType_0::SimdAddAcc            0      0.00%     87.50% # Class of committed instruction (Count)
system.cpu.commit.committedInstType_0::SimdAlu            0      0.00%     87.50% # Class of committed instruction (Count)
system.cpu.commit.committedInstType_0::SimdCmp            0      0.00%     87.50% # Class of committed instruction (Count)
system.cpu.commit.committedInstType_0::SimdCvt            0      0.00%     87.50% # Class of committed instruction (Count)
system.cpu.commit.committedInstType_0::SimdMisc            0      0.00%     87.50% # Class of committed instruction (Count)
system.cpu.commit.committedInstType_0::SimdMult            0      0.00%     87.50% # Class of committed instruction (Count)
system.cpu.commit.committedInstType_0::SimdMultAcc            0      0.00%     87.50% # Class of committed instruction (Count)
system.cpu.commit.committedInstType_0::SimdShift            0      0.00%     87.50% # Class of committed instruction (Count)
system.cpu.commit.committedInstType_0::SimdShiftAcc            0      0.00%     87.50% # Class of committed instruction (Count)
system.cpu.commit.committedInstType_0::SimdDiv            0      0.00%     87.50% # Class of committed instruction (Count)
system.cpu.commit.committedInstType_0::SimdSqrt            0      0.00%     87.50% # Class of committed instruction (Count)
system.cpu.commit.committedInstType_0::SimdFloatAdd            0      0.00%     87.50% # Class of committed instruction (Count)
system.cpu.commit.committedInstType_0::SimdFloatAlu            0      0.00%     87.50% # Class of committed instruction (Count)
system.cpu.commit.committedInstType_0::SimdFloatCmp            0      0.00%     87.50% # Class of committed instruction (Count)
system.cpu.commit.committedInstType_0::SimdFloatCvt            0      0.00%     87.50% # Class of committed instruction (Count)
system.cpu.commit.committedInstType_0::SimdFloatDiv            0      0.00%     87.50% # Class of committed instruction (Count)
system.cpu.commit.committedInstType_0::SimdFloatMisc            0      0.00%     87.50% # Class of committed instruction (Count)
system.cpu.commit.committedInstType_0::SimdFloatMult            0      0.00%     87.50% # Class of committed instruction (Count)
system.cpu.commit.committedInstType_0::SimdFloatMultAcc            0      0.00%     87.50% # Class of committed instruction (Count)
system.cpu.commit.committedInstType_0::SimdFloatSqrt            0      0.00%     87.50% # Class of committed instruction (Count)
system.cpu.commit.committedInstType_0::SimdReduceAdd            0      0.00%     87.50% # Class of committed instruction (Count)
system.cpu.commit.committedInstType_0::SimdReduceAlu            0      0.00%     87.50% # Class of committed instruction (Count)
system.cpu.commit.committedInstType_0::SimdReduceCmp            0      0.00%     87.50% # Class of committed instruction (Count)
system.cpu.commit.committedInstType_0::SimdFloatReduceAdd            0      0.00%     87.50% # Class of committed instruction (Count)
system.cpu.commit.committedInstType_0::SimdFloatReduceCmp            0      0.00%     87.50% # Class of committed instruction (Count)
system.cpu.commit.committedInstType_0::SimdAes            0      0.00%     87.50% # Class of committed instruction (Count)
system.cpu.commit.committedInstType_0::SimdAesMix            0      0.00%     87.50% # Class of committed instruction (Count)
system.cpu.commit.committedInstType_0::SimdSha1Hash            0      0.00%     87.50% # Class of committed instruction (Count)
system.cpu.commit.committedInstType_0::SimdSha1Hash2            0      0.00%     87.50% # Class of committed instruction (Count)
system.cpu.commit.committedInstType_0::SimdSha256Hash            0      0.00%     87.50% # Class of committed instruction (Count)
system.cpu.commit.committedInstType_0::SimdSha256Hash2            0      0.00%     87.50% # Class of committed instruction (Count)
system.cpu.commit.committedInstType_0::SimdShaSigma2            0      0.00%     87.50% # Class of committed instruction (Count)
system.cpu.commit.committedInstType_0::SimdShaSigma3            0      0.00%     87.50% # Class of committed instruction (Count)
system.cpu.commit.committedInstType_0::SimdPredAlu            0      0.00%     87.50% # Class of committed instruction (Count)
system.cpu.commit.committedInstType_0::MemRead      1048577     12.50%    100.00% # Class of committed instruction (Count)
system.cpu.commit.committedInstType_0::MemWrite            1      0.00%    100.00% # Class of committed instruction (Count)
system.cpu.commit.committedInstType_0::FloatMemRead            0      0.00%    100.00% # Class of committed instruction (Count)
system.cpu.commit.committedInstType_0::FloatMemWrite            0      0.00%    100.00% # Class of committed instruction (Count)
system.cpu.commit.committedInstType_0::IprAccess            0      0.00%    100.00% # Class of committed instruction (Count)
system.cpu.commit.committedInstType_0::InstPrefetch            0      0.00%    100.00% # Class of committed instruction (Count)
system.cpu.commit.committedInstType_0::total      8388625                       # Class of committed instruction (Count)
system.cpu.commit.commitEligibleSamples       1048576                       # number cycles where commit BW limit reached (Cycle)
system.cpu.decode.idleCycles                   349601                       # Number of cycles decode is idle (Cycle)
system.cpu.decode.blockedCycles               1748509                       # Number of cycles decode is blocked (Cycle)
system.cpu.decode.runCycles                        39                       # Number of cycles decode is running (Cycle)
system.cpu.decode.unblockCycles               1048555                       # Number of cycles decode is unblocking (Cycle)
system.cpu.decode.squashCycles                      4                       # Number of cycles decode is squashing (Cycle)
system.cpu.decode.branchResolved              1048584                       # Number of times decode resolved a branch (Count)
system.cpu.decode.branchMispred                     1                       # Number of times decode detected a branch misprediction (Count)
system.cpu.decode.decodedInsts                8388694                       # Number of instructions handled by decode (Count)
system.cpu.decode.squashedInsts                    16                       # Number of squashed instructions handled by decode (Count)
system.cpu.fetch.icacheStallCycles                 82                       # Number of cycles fetch is stalled on an Icache miss (Cycle)
system.cpu.fetch.insts                        4194363                       # Number of instructions fetch has processed (Count)
system.cpu.fetch.branches                     1048597                       # Number of branches that fetch encountered (Count)
system.cpu.fetch.predictedBranches            1048591                       # Number of branches that fetch has predicted taken (Count)
system.cpu.fetch.cycles                       3146620                       # Number of cycles fetch has run and was not squashing or blocked (Cycle)
system.cpu.fetch.squashCycles                      12                       # Number of cycles fetch has spent squashing (Cycle)
system.cpu.fetch.cacheLines                        15                       # Number of cache lines fetched (Count)
system.cpu.fetch.icacheSquashes                     1                       # Number of outstanding Icache misses that were squashed (Count)
system.cpu.fetch.nisnDist::samples            3146708                       # Number of instructions fetched each cycle (Total) (Count)
system.cpu.fetch.nisnDist::mean              2.665880                       # Number of instructions fetched each cycle (Total) (Count)
[...]
system.mem_ctrl.rdPerTurnAround::13                25      0.01%      0.02% # Reads before turning the bus around for writes (Count)
system.mem_ctrl.rdPerTurnAround::14               416      0.16%      0.18% # Reads before turning the bus around for writes (Count)
system.mem_ctrl.rdPerTurnAround::15             17485      6.76%      6.95% # Reads before turning the bus around for writes (Count)
system.mem_ctrl.rdPerTurnAround::16            236592     91.53%     98.48% # Reads before turning the bus around for writes (Count)
system.mem_ctrl.rdPerTurnAround::17              3921      1.52%    100.00% # Reads before turning the bus around for writes (Count)
system.mem_ctrl.rdPerTurnAround::18                 3      0.00%    100.00% # Reads before turning the bus around for writes (Count)
system.mem_ctrl.rdPerTurnAround::19                 2      0.00%    100.00% # Reads before turning the bus around for writes (Count)
system.mem_ctrl.rdPerTurnAround::21                 1      0.00%    100.00% # Reads before turning the bus around for writes (Count)
system.mem_ctrl.rdPerTurnAround::total         258474                       # Reads before turning the bus around for writes (Count)
system.mem_ctrl.wrPerTurnAround::samples       258474                       # Writes before turning the bus around for reads (Count)
system.mem_ctrl.wrPerTurnAround::mean       16.006299                       # Writes before turning the bus around for reads (Count)
system.mem_ctrl.wrPerTurnAround::gmean      16.006109                       # Writes before turning the bus around for reads (Count)
system.mem_ctrl.wrPerTurnAround::stdev       0.079600                       # Writes before turning the bus around for reads (Count)
system.mem_ctrl.wrPerTurnAround::16            256853     99.37%     99.37% # Writes before turning the bus around for reads (Count)
system.mem_ctrl.wrPerTurnAround::17              1617      0.63%    100.00% # Writes before turning the bus around for reads (Count)
system.mem_ctrl.wrPerTurnAround::18                 1      0.00%    100.00% # Writes before turning the bus around for reads (Count)
system.mem_ctrl.wrPerTurnAround::19                 3      0.00%    100.00% # Writes before turning the bus around for reads (Count)
system.mem_ctrl.wrPerTurnAround::total         258474                       # Writes before turning the bus around for reads (Count)
system.mem_ctrl.bytesReadWrQ                  1337024                       # Total number of bytes read from write queue (Byte)
system.mem_ctrl.bytesReadSys                265080256                       # Total read bytes from the system interface side (Byte)
system.mem_ctrl.bytesWrittenSys             265080256                       # Total written bytes from the system interface side (Byte)
system.mem_ctrl.avgRdBWSys               793637878.21196008                       # Average system read bandwidth in Byte/s ((Byte/Second))
system.mem_ctrl.avgWrBWSys               793637878.21196008                       # Average system write bandwidth in Byte/s ((Byte/Second))
system.mem_ctrl.totGap                   334006523000                       # Total gap between requests (Tick)
system.mem_ctrl.avgGap                       40320.65                       # Average gap between requests ((Tick/Count))
system.mem_ctrl.requestorReadBytes::caches.controllers1    263743232                       # Per-requestor bytes read from memory (Byte)
system.mem_ctrl.requestorWriteBytes::caches.controllers1    264781568                       # Per-requestor bytes write to memory (Byte)
system.mem_ctrl.requestorReadRate::caches.controllers1 789634890.941273093224                       # Per-requestor bytes read from memory rate ((Byte/Second))
system.mem_ctrl.requestorWriteRate::caches.controllers1 792743620.321371078491                       # Per-requestor bytes write to memory rate ((Byte/Second))
system.mem_ctrl.requestorReadAccesses::caches.controllers1      4141879                       # Per-requestor read serviced memory accesses (Count)
system.mem_ctrl.requestorWriteAccesses::caches.controllers1      4141879                       # Per-requestor write serviced memory accesses (Count)
system.mem_ctrl.requestorReadTotalLat::caches.controllers1 166446194500                       # Per-requestor read total memory access latency (Tick)
system.mem_ctrl.requestorWriteTotalLat::caches.controllers1 8258881065750                       # Per-requestor write total memory access latency (Tick)
system.mem_ctrl.requestorReadAvgLat::caches.controllers1     40186.16                       # Per-requestor read average memory access latency ((Tick/Count))
system.mem_ctrl.requestorWriteAvgLat::caches.controllers1   1993993.80                       # Per-requestor write average memory access latency ((Tick/Count))
system.mem_ctrl.dram.bytesRead::caches.controllers1    265080256                       # Number of bytes read from this memory (Byte)
system.mem_ctrl.dram.bytesRead::total       265080256                       # Number of bytes read from this memory (Byte)
system.mem_ctrl.dram.bytesWritten::caches.controllers1    265080256                       # Number of bytes written to this memory (Byte)
system.mem_ctrl.dram.bytesWritten::total    265080256                       # Number of bytes written to this memory (Byte)
system.mem_ctrl.dram.numReads::caches.controllers1      4141879                       # Number of read requests responded to by this memory (Count)
system.mem_ctrl.dram.numReads::total          4141879                       # Number of read requests responded to by this memory (Count)
system.mem_ctrl.dram.numWrites::caches.controllers1      4141879                       # Number of write requests responded to by this memory (Count)
system.mem_ctrl.dram.numWrites::total         4141879                       # Number of write requests responded to by this memory (Count)
system.mem_ctrl.dram.bwRead::caches.controllers1    793637878                       # Total read bandwidth from this memory ((Byte/Second))
system.mem_ctrl.dram.bwRead::total          793637878                       # Total read bandwidth from this memory ((Byte/Second))
system.mem_ctrl.dram.bwWrite::caches.controllers1    793637878                       # Write bandwidth from this memory ((Byte/Second))
system.mem_ctrl.dram.bwWrite::total         793637878                       # Write bandwidth from this memory ((Byte/Second))
system.mem_ctrl.dram.bwTotal::caches.controllers1   1587275756                       # Total bandwidth to/from this memory ((Byte/Second))
system.mem_ctrl.dram.bwTotal::total        1587275756                       # Total bandwidth to/from this memory ((Byte/Second))
system.mem_ctrl.dram.readBursts               4120988                       # Number of DRAM read bursts (Count)
system.mem_ctrl.dram.writeBursts              4137212                       # Number of DRAM write bursts (Count)
system.mem_ctrl.dram.perBankRdBursts::0        257095                       # Per bank write bursts (Count)
system.mem_ctrl.dram.perBankRdBursts::1        257286                       # Per bank write bursts (Count)
system.mem_ctrl.dram.perBankRdBursts::2        258425                       # Per bank write bursts (Count)
system.mem_ctrl.dram.perBankRdBursts::3        258260                       # Per bank write bursts (Count)
system.mem_ctrl.dram.perBankRdBursts::4        257053                       # Per bank write bursts (Count)
system.mem_ctrl.dram.perBankRdBursts::5        257653                       # Per bank write bursts (Count)
system.mem_ctrl.dram.perBankRdBursts::6        257509                       # Per bank write bursts (Count)
system.mem_ctrl.dram.perBankRdBursts::7        257445                       # Per bank write bursts (Count)
system.mem_ctrl.dram.perBankRdBursts::8        258023                       # Per bank write bursts (Count)
system.mem_ctrl.dram.perBankRdBursts::9        319410                       # Per bank write bursts (Count)
system.mem_ctrl.dram.perBankRdBursts::10       194029                       # Per bank write bursts (Count)
system.mem_ctrl.dram.perBankRdBursts::11       257450                       # Per bank write bursts (Count)
system.mem_ctrl.dram.perBankRdBursts::12       257511                       # Per bank write bursts (Count)
system.mem_ctrl.dram.perBankRdBursts::13       258108                       # Per bank write bursts (Count)
system.mem_ctrl.dram.perBankRdBursts::14       257914                       # Per bank write bursts (Count)
system.mem_ctrl.dram.perBankRdBursts::15       257817                       # Per bank write bursts (Count)
system.mem_ctrl.dram.perBankWrBursts::0        258427                       # Per bank write bursts (Count)
system.mem_ctrl.dram.perBankWrBursts::1        258146                       # Per bank write bursts (Count)
system.mem_ctrl.dram.perBankWrBursts::2        259051                       # Per bank write bursts (Count)
system.mem_ctrl.dram.perBankWrBursts::3        258835                       # Per bank write bursts (Count)
system.mem_ctrl.dram.perBankWrBursts::4        258073                       # Per bank write bursts (Count)
system.mem_ctrl.dram.perBankWrBursts::5        258576                       # Per bank write bursts (Count)
system.mem_ctrl.dram.perBankWrBursts::6        258829                       # Per bank write bursts (Count)
system.mem_ctrl.dram.perBankWrBursts::7        258058                       # Per bank write bursts (Count)
system.mem_ctrl.dram.perBankWrBursts::8        259036                       # Per bank write bursts (Count)
system.mem_ctrl.dram.perBankWrBursts::9        321841                       # Per bank write bursts (Count)
system.mem_ctrl.dram.perBankWrBursts::10       194666                       # Per bank write bursts (Count)
system.mem_ctrl.dram.perBankWrBursts::11       258305                       # Per bank write bursts (Count)
system.mem_ctrl.dram.perBankWrBursts::12       258805                       # Per bank write bursts (Count)
system.mem_ctrl.dram.perBankWrBursts::13       259146                       # Per bank write bursts (Count)
system.mem_ctrl.dram.perBankWrBursts::14       258436                       # Per bank write bursts (Count)
system.mem_ctrl.dram.perBankWrBursts::15       258982                       # Per bank write bursts (Count)
system.mem_ctrl.dram.totQLat              89177669500                       # Total ticks spent queuing (Tick)
system.mem_ctrl.dram.totBusLat            20604940000                       # Total ticks spent in databus transfers (Tick)
system.mem_ctrl.dram.totMemAccLat        166446194500                       # Total ticks spent from burst creation until serviced by the DRAM (Tick)
system.mem_ctrl.dram.avgQLat                 21639.88                       # Average queueing delay per DRAM burst ((Tick/Count))
system.mem_ctrl.dram.avgBusLat                5000.00                       # Average bus latency per DRAM burst ((Tick/Count))
system.mem_ctrl.dram.avgMemAccLat            40389.88                       # Average memory access latency per DRAM burst ((Tick/Count))
system.mem_ctrl.dram.readRowHits              1452445                       # Number of row buffer hits during reads (Count)
system.mem_ctrl.dram.writeRowHits             3215252                       # Number of row buffer hits during writes (Count)
system.mem_ctrl.dram.readRowHitRate             35.25                       # Row buffer hit rate for reads (Ratio)
system.mem_ctrl.dram.writeRowHitRate            77.72                       # Row buffer hit rate for writes (Ratio)
system.mem_ctrl.dram.bytesPerActivate::samples      3590504                       # Bytes accessed per row activation (Byte)
system.mem_ctrl.dram.bytesPerActivate::mean   147.200335                       # Bytes accessed per row activation (Byte)
system.mem_ctrl.dram.bytesPerActivate::gmean   121.441379                       # Bytes accessed per row activation (Byte)
system.mem_ctrl.dram.bytesPerActivate::stdev    99.697810                       # Bytes accessed per row activation (Byte)
system.mem_ctrl.dram.bytesPerActivate::0-127      1435525     39.98%     39.98% # Bytes accessed per row activation (Byte)
system.mem_ctrl.dram.bytesPerActivate::128-255      1511206     42.09%     82.07% # Bytes accessed per row activation (Byte)
system.mem_ctrl.dram.bytesPerActivate::256-383       482745     13.45%     95.52% # Bytes accessed per row activation (Byte)
system.mem_ctrl.dram.bytesPerActivate::384-511       124258      3.46%     98.98% # Bytes accessed per row activation (Byte)
system.mem_ctrl.dram.bytesPerActivate::512-639        27455      0.76%     99.74% # Bytes accessed per row activation (Byte)
system.mem_ctrl.dram.bytesPerActivate::640-767         6988      0.19%     99.94% # Bytes accessed per row activation (Byte)
system.mem_ctrl.dram.bytesPerActivate::768-895         1646      0.05%     99.98% # Bytes accessed per row activation (Byte)
system.mem_ctrl.dram.bytesPerActivate::896-1023          390      0.01%     99.99% # Bytes accessed per row activation (Byte)
system.mem_ctrl.dram.bytesPerActivate::1024-1151          291      0.01%    100.00% # Bytes accessed per row activation (Byte)
system.mem_ctrl.dram.bytesPerActivate::total      3590504                       # Bytes accessed per row activation (Byte)
system.mem_ctrl.dram.bytesRead              263743232                       # Total number of bytes read from DRAM (Byte)
system.mem_ctrl.dram.bytesWritten           264781568                       # Total number of bytes written to DRAM (Byte)
system.mem_ctrl.dram.avgRdBW               789.634891                       # Average DRAM read bandwidth in MiBytes/s ((Byte/Second))
system.mem_ctrl.dram.avgWrBW               792.743620                       # Average DRAM write bandwidth in MiBytes/s ((Byte/Second))
system.mem_ctrl.dram.peakBW                  12800.00                       # Theoretical peak bandwidth in MiByte/s ((Byte/Second))
system.mem_ctrl.dram.busUtil                    12.36                       # Data bus utilization in percentage (Ratio)
system.mem_ctrl.dram.busUtilRead                 6.17                       # Data bus utilization in percentage for reads (Ratio)
system.mem_ctrl.dram.busUtilWrite                6.19                       # Data bus utilization in percentage for writes (Ratio)
system.mem_ctrl.dram.pageHitRate                56.52                       # Row buffer hit rate, read and write combined (Ratio)
system.mem_ctrl.dram.power_state.pwrStateResidencyTicks::UNDEFINED 342371291000                       # Cumulative time (in ticks) in various power states (Tick)
system.mem_ctrl.dram.rank0.actEnergy      12603984960                       # Energy for activate commands per rank (pJ) (Joule)
system.mem_ctrl.dram.rank0.preEnergy       6699154110                       # Energy for precharge commands per rank (pJ) (Joule)
system.mem_ctrl.dram.rank0.readEnergy     14714019180                       # Energy for read commands per rank (pJ) (Joule)
system.mem_ctrl.dram.rank0.writeEnergy    10795241880                       # Energy for write commands per rank (pJ) (Joule)
system.mem_ctrl.dram.rank0.refreshEnergy 26366212080.000004                       # Energy for refresh commands per rank (pJ) (Joule)
system.mem_ctrl.dram.rank0.actBackEnergy 150396914520                       # Energy for active background per rank (pJ) (Joule)
system.mem_ctrl.dram.rank0.preBackEnergy   1610777760                       # Energy for precharge background per rank (pJ) (Joule)
system.mem_ctrl.dram.rank0.actPowerDownEnergy            0                       # Energy for active power-down per rank (pJ) (Joule)
system.mem_ctrl.dram.rank0.prePowerDownEnergy            0                       # Energy for precharge power-down per rank (pJ) (Joule)
system.mem_ctrl.dram.rank0.selfRefreshEnergy            0                       # Energy for self refresh per rank (pJ) (Joule)
system.mem_ctrl.dram.rank0.totalEnergy   223186304490                       # Total energy per rank (pJ) (Joule)
system.mem_ctrl.dram.rank0.averagePower    668.209348                       # Core power per rank (mW) (Watt)
system.mem_ctrl.dram.rank0.totalIdleTime            0                       # Total Idle time Per DRAM Rank (Tick)
system.mem_ctrl.dram.rank0.pwrStateTime::IDLE   2962878250                       # Time in different power states (Tick)
system.mem_ctrl.dram.rank0.pwrStateTime::REF  11153220000                       # Time in different power states (Tick)
system.mem_ctrl.dram.rank0.pwrStateTime::SREF            0                       # Time in different power states (Tick)
system.mem_ctrl.dram.rank0.pwrStateTime::PRE_PDN            0                       # Time in different power states (Tick)
system.mem_ctrl.dram.rank0.pwrStateTime::ACT 319896430750                       # Time in different power states (Tick)
system.mem_ctrl.dram.rank0.pwrStateTime::ACT_PDN            0                       # Time in different power states (Tick)
system.mem_ctrl.dram.rank1.actEnergy      13033106100                       # Energy for activate commands per rank (pJ) (Joule)
system.mem_ctrl.dram.rank1.preEnergy       6927241200                       # Energy for precharge commands per rank (pJ) (Joule)
system.mem_ctrl.dram.rank1.readEnergy     14710699080                       # Energy for read commands per rank (pJ) (Joule)
system.mem_ctrl.dram.rank1.writeEnergy    10801672920                       # Energy for write commands per rank (pJ) (Joule)
system.mem_ctrl.dram.rank1.refreshEnergy 26366212080.000004                       # Energy for refresh commands per rank (pJ) (Joule)
system.mem_ctrl.dram.rank1.actBackEnergy 150478320780                       # Energy for active background per rank (pJ) (Joule)
system.mem_ctrl.dram.rank1.preBackEnergy   1542262560                       # Energy for precharge background per rank (pJ) (Joule)
system.mem_ctrl.dram.rank1.actPowerDownEnergy            0                       # Energy for active power-down per rank (pJ) (Joule)
system.mem_ctrl.dram.rank1.prePowerDownEnergy            0                       # Energy for precharge power-down per rank (pJ) (Joule)
system.mem_ctrl.dram.rank1.selfRefreshEnergy            0                       # Energy for self refresh per rank (pJ) (Joule)
system.mem_ctrl.dram.rank1.totalEnergy   223859514720                       # Total energy per rank (pJ) (Joule)
system.mem_ctrl.dram.rank1.averagePower    670.224908                       # Core power per rank (mW) (Watt)
system.mem_ctrl.dram.rank1.totalIdleTime            0                       # Total Idle time Per DRAM Rank (Tick)
system.mem_ctrl.dram.rank1.pwrStateTime::IDLE   2776142750                       # Time in different power states (Tick)
system.mem_ctrl.dram.rank1.pwrStateTime::REF  11153220000                       # Time in different power states (Tick)
system.mem_ctrl.dram.rank1.pwrStateTime::SREF            0                       # Time in different power states (Tick)
system.mem_ctrl.dram.rank1.pwrStateTime::PRE_PDN            0                       # Time in different power states (Tick)
system.mem_ctrl.dram.rank1.pwrStateTime::ACT 320083263750                       # Time in different power states (Tick)
system.mem_ctrl.dram.rank1.pwrStateTime::ACT_PDN            0                       # Time in different power states (Tick)
system.mem_ctrl.power_state.pwrStateResidencyTicks::UNDEFINED 342371291000                       # Cumulative time (in ticks) in various power states (Tick)
system.workload.inst.arm                            0                       # number of arm instructions executed (Count)
system.workload.inst.quiesce                        0                       # number of quiesce instructions executed (Count)

---------- End Simulation Statistics   ----------
