
---------- Begin Simulation Statistics ----------
simSeconds                                   0.003146                       # Number of seconds simulated (Second)
simTicks                                   3146115000                       # Number of ticks simulated (Tick)
finalTick                                  5518824000                       # Number of ticks from beginning of simulation (restored from checkpoints and never reset) (Tick)
simFreq                                  1000000000000                       # The number of ticks per simulated second ((Tick/Second))
hostSeconds                                      9.56                       # Real time elapsed on the host (Second)
hostTickRate                                329060436                       # The number of ticks simulated per host second (ticks/s) ((Tick/Second))
hostMemory                                    9646240                       # Number of bytes of host memory used (Byte)
simInsts                                      6451886                       # Number of instructions simulated (Count)
simOps                                       12338249                       # Number of ops (including micro ops) simulated (Count)
hostInstRate                                   674813                       # Simulator instruction rate (inst/s) ((Count/Second))
hostOpRate                                    1290477                       # Simulator op (including micro ops) rate (op/s) ((Count/Second))
system.caches.delayHistogram::bucket_size            2                       # delay histogram for all message (Unspecified)
system.caches.delayHistogram::max_bucket           19                       # delay histogram for all message (Unspecified)
system.caches.delayHistogram::samples           45344                       # delay histogram for all message (Unspecified)
system.caches.delayHistogram::mean           0.052047                       # delay histogram for all message (Unspecified)
system.caches.delayHistogram::stdev          0.553536                       # delay histogram for all message (Unspecified)
system.caches.delayHistogram             |       44867     98.95%     98.95% |         115      0.25%     99.20% |         116      0.26%     99.46% |         161      0.36%     99.81% |          82      0.18%     99.99% |           0      0.00%     99.99% |           1      0.00%    100.00% |           0      0.00%    100.00% |           2      0.00%    100.00% |           0      0.00%    100.00% # delay histogram for all message (Unspecified)
system.caches.delayHistogram::total             45344                       # delay histogram for all message (Unspecified)
system.caches.m_outstandReqHistSeqr::bucket_size            1                       (Unspecified)
system.caches.m_outstandReqHistSeqr::max_bucket            9                       (Unspecified)
system.caches.m_outstandReqHistSeqr::samples      1048621                       (Unspecified)
system.caches.m_outstandReqHistSeqr::mean     1.000083                       (Unspecified)
system.caches.m_outstandReqHistSeqr::gmean     1.000041                       (Unspecified)
system.caches.m_outstandReqHistSeqr::stdev     0.015471                       (Unspecified)
system.caches.m_outstandReqHistSeqr      |           0      0.00%      0.00% |     1048583    100.00%    100.00% |          16      0.00%    100.00% |           1      0.00%    100.00% |          15      0.00%    100.00% |           6      0.00%    100.00% |           0      0.00%    100.00% |           0      0.00%    100.00% |           0      0.00%    100.00% |           0      0.00%    100.00% (Unspecified)
system.caches.m_outstandReqHistSeqr::total      1048621                       (Unspecified)
system.caches.m_latencyHistSeqr::bucket_size           16                       (Unspecified)
system.caches.m_latencyHistSeqr::max_bucket          159                       (Unspecified)
system.caches.m_latencyHistSeqr::samples      1048620                       (Unspecified)
system.caches.m_latencyHistSeqr::mean        1.000373                       (Unspecified)
system.caches.m_latencyHistSeqr::gmean       1.000027                       (Unspecified)
system.caches.m_latencyHistSeqr::stdev       0.149589                       (Unspecified)
system.caches.m_latencyHistSeqr          |     1048613    100.00%    100.00% |           1      0.00%    100.00% |           0      0.00%    100.00% |           5      0.00%    100.00% |           0      0.00%    100.00% |           1      0.00%    100.00% |           0      0.00%    100.00% |           0      0.00%    100.00% |           0      0.00%    100.00% |           0      0.00%    100.00% (Unspecified)
system.caches.m_latencyHistSeqr::total        1048620                       (Unspecified)
system.caches.m_hitLatencyHistSeqr::bucket_size            1                       (Unspecified)
system.caches.m_hitLatencyHistSeqr::max_bucket            9                       (Unspecified)
system.caches.m_hitLatencyHistSeqr::samples      1048613                       (Unspecified)
system.caches.m_hitLatencyHistSeqr::mean            1                       (Unspecified)
system.caches.m_hitLatencyHistSeqr::gmean            1                       (Unspecified)
system.caches.m_hitLatencyHistSeqr       |           0      0.00%      0.00% |     1048613    100.00%    100.00% |           0      0.00%    100.00% |           0      0.00%    100.00% |           0      0.00%    100.00% |           0      0.00%    100.00% |           0      0.00%    100.00% |           0      0.00%    100.00% |           0      0.00%    100.00% |           0      0.00%    100.00% (Unspecified)
system.caches.m_hitLatencyHistSeqr::total      1048613                       (Unspecified)
system.caches.m_missLatencyHistSeqr::bucket_size           16                       (Unspecified)
system.caches.m_missLatencyHistSeqr::max_bucket          159                       (Unspecified)
system.caches.m_missLatencyHistSeqr::samples            7                       (Unspecified)
system.caches.m_missLatencyHistSeqr::mean    56.857143                       (Unspecified)
system.caches.m_missLatencyHistSeqr::gmean    54.521082                       (Unspecified)
system.caches.m_missLatencyHistSeqr::stdev    16.456291                       (Unspecified)
system.caches.m_missLatencyHistSeqr      |           0      0.00%      0.00% |           1     14.29%     14.29% |           0      0.00%     14.29% |           5     71.43%     85.71% |           0      0.00%     85.71% |           1     14.29%    100.00% |           0      0.00%    100.00% |           0      0.00%    100.00% |           0      0.00%    100.00% |           0      0.00%    100.00% (Unspecified)
system.caches.m_missLatencyHistSeqr::total            7                       (Unspecified)
system.caches.delayVCHist.vnet_1::bucket_size            1                       # delay histogram for vnet_1 (Unspecified)
system.caches.delayVCHist.vnet_1::max_bucket            9                       # delay histogram for vnet_1 (Unspecified)
system.caches.delayVCHist.vnet_1::samples        22928                       # delay histogram for vnet_1 (Unspecified)
system.caches.delayVCHist.vnet_1::mean       0.003489                       # delay histogram for vnet_1 (Unspecified)
system.caches.delayVCHist.vnet_1::stdev      0.137223                       # delay histogram for vnet_1 (Unspecified)
system.caches.delayVCHist.vnet_1         |       22910     99.92%     99.92% |           0      0.00%     99.92% |           6      0.03%     99.95% |           0      0.00%     99.95% |           4      0.02%     99.97% |           0      0.00%     99.97% |           6      0.03%     99.99% |           0      0.00%     99.99% |           2      0.01%    100.00% |           0      0.00%    100.00% # delay histogram for vnet_1 (Unspecified)
system.caches.delayVCHist.vnet_1::total         22928                       # delay histogram for vnet_1 (Unspecified)
system.caches.delayVCHist.vnet_2::bucket_size            2                       # delay histogram for vnet_2 (Unspecified)
system.caches.delayVCHist.vnet_2::max_bucket           19                       # delay histogram for vnet_2 (Unspecified)
system.caches.delayVCHist.vnet_2::samples        22416                       # delay histogram for vnet_2 (Unspecified)
system.caches.delayVCHist.vnet_2::mean       0.101713                       # delay histogram for vnet_2 (Unspecified)
system.caches.delayVCHist.vnet_2::stdev      0.771801                       # delay histogram for vnet_2 (Unspecified)
system.caches.delayVCHist.vnet_2         |       21957     97.95%     97.95% |         109      0.49%     98.44% |         112      0.50%     98.94% |         155      0.69%     99.63% |          80      0.36%     99.99% |           0      0.00%     99.99% |           1      0.00%     99.99% |           0      0.00%     99.99% |           2      0.01%    100.00% |           0      0.00%    100.00% # delay histogram for vnet_2 (Unspecified)
system.caches.delayVCHist.vnet_2::total         22416                       # delay histogram for vnet_2 (Unspecified)
system.caches.L1Cache_Controller.Load         1517755      0.00%      0.00% (Unspecified)
system.caches.L1Cache_Controller.Ifetch        265401      0.00%      0.00% (Unspecified)
system.caches.L1Cache_Controller.Store         208312      0.00%      0.00% (Unspecified)
system.caches.L1Cache_Controller.Data           22928      0.00%      0.00% (Unspecified)
system.caches.L1Cache_Controller.Replacement        22417      0.00%      0.00% (Unspecified)
system.caches.L1Cache_Controller.Writeback_Ack        22416      0.00%      0.00% (Unspecified)
system.caches.L1Cache_Controller.I.Load         16735      0.00%      0.00% (Unspecified)
system.caches.L1Cache_Controller.I.Ifetch         3425      0.00%      0.00% (Unspecified)
system.caches.L1Cache_Controller.I.Store         2769      0.00%      0.00% (Unspecified)
system.caches.L1Cache_Controller.M.Load       1501020      0.00%      0.00% (Unspecified)
system.caches.L1Cache_Controller.M.Ifetch       261976      0.00%      0.00% (Unspecified)
system.caches.L1Cache_Controller.M.Store       205543      0.00%      0.00% (Unspecified)
system.caches.L1Cache_Controller.M.Replacement        22417      0.00%      0.00% (Unspecified)
system.caches.L1Cache_Controller.MI.Writeback_Ack        22416      0.00%      0.00% (Unspecified)
system.caches.L1Cache_Controller.IS.Data        20159      0.00%      0.00% (Unspecified)
system.caches.L1Cache_Controller.IM.Data         2769      0.00%      0.00% (Unspecified)
system.caches.Directory_Controller.GETX         22928      0.00%      0.00% (Unspecified)
system.caches.Directory_Controller.PUTX         22416      0.00%      0.00% (Unspecified)
system.caches.Directory_Controller.Memory_Data        22928      0.00%      0.00% (Unspecified)
system.caches.Directory_Controller.Memory_Ack        22416      0.00%      0.00% (Unspecified)
system.caches.Directory_Controller.I.GETX        22928      0.00%      0.00% (Unspecified)
system.caches.Directory_Controller.M.PUTX        22416      0.00%      0.00% (Unspecified)
system.caches.Directory_Controller.IM.Memory_Data        22928      0.00%      0.00% (Unspecified)
system.caches.Directory_Controller.MI.Memory_Ack        22416      0.00%      0.00% (Unspecified)
system.caches.MachineType.Directory.miss_mach_latency_hist_seqr::bucket_size           16                       (Unspecified)
system.caches.MachineType.Directory.miss_mach_latency_hist_seqr::max_bucket          159                       (Unspecified)
system.caches.MachineType.Directory.miss_mach_latency_hist_seqr::samples            7                       (Unspecified)
system.caches.MachineType.Directory.miss_mach_latency_hist_seqr::mean    56.857143                       (Unspecified)
system.caches.MachineType.Directory.miss_mach_latency_hist_seqr::gmean    54.521082                       (Unspecified)
system.caches.MachineType.Directory.miss_mach_latency_hist_seqr::stdev    16.456291                       (Unspecified)
system.caches.MachineType.Directory.miss_mach_latency_hist_seqr |           0      0.00%      0.00% |           1     14.29%     14.29% |           0      0.00%     14.29% |           5     71.43%     85.71% |           0      0.00%     85.71% |           1     14.29%    100.00% |           0      0.00%    100.00% |           0      0.00%    100.00% |           0      0.00%    100.00% |           0      0.00%    100.00% (Unspecified)
system.caches.MachineType.Directory.miss_mach_latency_hist_seqr::total            7                       (Unspecified)
system.caches.MachineType.Directory.incomplete_times_seqr        22927                       (Unspecified)
system.caches.RequestType.LD.latency_hist_seqr::bucket_size           16                       (Unspecified)
system.caches.RequestType.LD.latency_hist_seqr::max_bucket          159                       (Unspecified)
system.caches.RequestType.LD.latency_hist_seqr::samples      1048587                       (Unspecified)
system.caches.RequestType.LD.latency_hist_seqr::mean     1.000373                       (Unspecified)
system.caches.RequestType.LD.latency_hist_seqr::gmean     1.000027                       (Unspecified)
system.caches.RequestType.LD.latency_hist_seqr::stdev     0.149591                       (Unspecified)
system.caches.RequestType.LD.latency_hist_seqr |     1048580    100.00%    100.00% |           1      0.00%    100.00% |           0      0.00%    100.00% |           5      0.00%    100.00% |           0      0.00%    100.00% |           1      0.00%    100.00% |           0      0.00%    100.00% |           0      0.00%    100.00% |           0      0.00%    100.00% |           0      0.00%    100.00% (Unspecified)
system.caches.RequestType.LD.latency_hist_seqr::total      1048587                       (Unspecified)
system.caches.RequestType.LD.hit_latency_hist_seqr::bucket_size            1                       (Unspecified)
system.caches.RequestType.LD.hit_latency_hist_seqr::max_bucket            9                       (Unspecified)
system.caches.RequestType.LD.hit_latency_hist_seqr::samples      1048580                       (Unspecified)
system.caches.RequestType.LD.hit_latency_hist_seqr::mean            1                       (Unspecified)
system.caches.RequestType.LD.hit_latency_hist_seqr::gmean            1                       (Unspecified)
system.caches.RequestType.LD.hit_latency_hist_seqr |           0      0.00%      0.00% |     1048580    100.00%    100.00% |           0      0.00%    100.00% |           0      0.00%    100.00% |           0      0.00%    100.00% |           0      0.00%    100.00% |           0      0.00%    100.00% |           0      0.00%    100.00% |           0      0.00%    100.00% |           0      0.00%    100.00% (Unspecified)
system.caches.RequestType.LD.hit_latency_hist_seqr::total      1048580                       (Unspecified)
system.caches.RequestType.LD.miss_latency_hist_seqr::bucket_size           16                       (Unspecified)
system.caches.RequestType.LD.miss_latency_hist_seqr::max_bucket          159                       (Unspecified)
system.caches.RequestType.LD.miss_latency_hist_seqr::samples            7                       (Unspecified)
system.caches.RequestType.LD.miss_latency_hist_seqr::mean    56.857143                       (Unspecified)
system.caches.RequestType.LD.miss_latency_hist_seqr::gmean    54.521082                       (Unspecified)
system.caches.RequestType.LD.miss_latency_hist_seqr::stdev    16.456291                       (Unspecified)
system.caches.RequestType.LD.miss_latency_hist_seqr |           0      0.00%      0.00% |           1     14.29%     14.29% |           0      0.00%     14.29% |           5     71.43%     85.71% |           0      0.00%     85.71% |           1     14.29%    100.00% |           0      0.00%    100.00% |           0      0.00%    100.00% |           0      0.00%    100.00% |           0      0.00%    100.00% (Unspecified)
system.caches.RequestType.LD.miss_latency_hist_seqr::total            7                       (Unspecified)
system.caches.RequestType.ST.latency_hist_seqr::bucket_size            1                       (Unspecified)
system.caches.RequestType.ST.latency_hist_seqr::max_bucket            9                       (Unspecified)
system.caches.RequestType.ST.latency_hist_seqr::samples            1                       (Unspecified)
system.caches.RequestType.ST.latency_hist_seqr::mean            1                       (Unspecified)
system.caches.RequestType.ST.latency_hist_seqr::gmean            1                       (Unspecified)
system.caches.RequestType.ST.latency_hist_seqr::stdev          nan                       (Unspecified)
system.caches.RequestType.ST.latency_hist_seqr |           0      0.00%      0.00% |           1    100.00%    100.00% |           0      0.00%    100.00% |           0      0.00%    100.00% |           0      0.00%    100.00% |           0      0.00%    100.00% |           0      0.00%    100.00% |           0      0.00%    100.00% |           0      0.00%    100.00% |           0      0.00%    100.00% (Unspecified)
system.caches.RequestType.ST.latency_hist_seqr::total            1                       (Unspecified)
system.caches.RequestType.ST.hit_latency_hist_seqr::bucket_size            1                       (Unspecified)
system.caches.RequestType.ST.hit_latency_hist_seqr::max_bucket            9                       (Unspecified)
system.caches.RequestType.ST.hit_latency_hist_seqr::samples            1                       (Unspecified)
system.caches.RequestType.ST.hit_latency_hist_seqr::mean            1                       (Unspecified)
system.caches.RequestType.ST.hit_latency_hist_seqr::gmean            1                       (Unspecified)
system.caches.RequestType.ST.hit_latency_hist_seqr::stdev          nan                       (Unspecified)
system.caches.RequestType.ST.hit_latency_hist_seqr |           0      0.00%      0.00% |           1    100.00%    100.00% |           0      0.00%    100.00% |           0      0.00%    100.00% |           0      0.00%    100.00% |           0      0.00%    100.00% |           0      0.00%    100.00% |           0      0.00%    100.00% |           0      0.00%    100.00% |           0      0.00%    100.00% (Unspecified)
system.caches.RequestType.ST.hit_latency_hist_seqr::total            1                       (Unspecified)
system.caches.RequestType.IFETCH.latency_hist_seqr::bucket_size            1                       (Unspecified)
system.caches.RequestType.IFETCH.latency_hist_seqr::max_bucket            9                       (Unspecified)
system.caches.RequestType.IFETCH.latency_hist_seqr::samples           32                       (Unspecified)
system.caches.RequestType.IFETCH.latency_hist_seqr::mean            1                       (Unspecified)
system.caches.RequestType.IFETCH.latency_hist_seqr::gmean            1                       (Unspecified)
system.caches.RequestType.IFETCH.latency_hist_seqr |           0      0.00%      0.00% |          32    100.00%    100.00% |           0      0.00%    100.00% |           0      0.00%    100.00% |           0      0.00%    100.00% |           0      0.00%    100.00% |           0      0.00%    100.00% |           0      0.00%    100.00% |           0      0.00%    100.00% |           0      0.00%    100.00% (Unspecified)
system.caches.RequestType.IFETCH.latency_hist_seqr::total           32                       (Unspecified)
system.caches.RequestType.IFETCH.hit_latency_hist_seqr::bucket_size            1                       (Unspecified)
system.caches.RequestType.IFETCH.hit_latency_hist_seqr::max_bucket            9                       (Unspecified)
system.caches.RequestType.IFETCH.hit_latency_hist_seqr::samples           32                       (Unspecified)
system.caches.RequestType.IFETCH.hit_latency_hist_seqr::mean            1                       (Unspecified)
system.caches.RequestType.IFETCH.hit_latency_hist_seqr::gmean            1                       (Unspecified)
system.caches.RequestType.IFETCH.hit_latency_hist_seqr |           0      0.00%      0.00% |          32    100.00%    100.00% |           0      0.00%    100.00% |           0      0.00%    100.00% |           0      0.00%    100.00% |           0      0.00%    100.00% |           0      0.00%    100.00% |           0      0.00%    100.00% |           0      0.00%    100.00% |           0      0.00%    100.00% (Unspecified)
system.caches.RequestType.IFETCH.hit_latency_hist_seqr::total           32                       (Unspecified)
system.caches.RequestTypeMachineType.LD.Directory.miss_type_mach_latency_hist_seqr::bucket_size           16                       (Unspecified)
system.caches.RequestTypeMachineType.LD.Directory.miss_type_mach_latency_hist_seqr::max_bucket          159                       (Unspecified)
system.caches.RequestTypeMachineType.LD.Directory.miss_type_mach_latency_hist_seqr::samples            7                       (Unspecified)
system.caches.RequestTypeMachineType.LD.Directory.miss_type_mach_latency_hist_seqr::mean    56.857143                       (Unspecified)
system.caches.RequestTypeMachineType.LD.Directory.miss_type_mach_latency_hist_seqr::gmean    54.521082                       (Unspecified)
system.caches.RequestTypeMachineType.LD.Directory.miss_type_mach_latency_hist_seqr::stdev    16.456291                       (Unspecified)
system.caches.RequestTypeMachineType.LD.Directory.miss_type_mach_latency_hist_seqr |           0      0.00%      0.00% |           1     14.29%     14.29% |           0      0.00%     14.29% |           5     71.43%     85.71% |           0      0.00%     85.71% |           1     14.29%    100.00% |           0      0.00%    100.00% |           0      0.00%    100.00% |           0      0.00%    100.00% |           0      0.00%    100.00% (Unspecified)
system.caches.RequestTypeMachineType.LD.Directory.miss_type_mach_latency_hist_seqr::total            7                       (Unspecified)
system.caches.controllers0.delayHistogram::samples        45344                       # delay_histogram (Unspecified)
system.caches.controllers0.delayHistogram::mean     0.052047                       # delay_histogram (Unspecified)
system.caches.controllers0.delayHistogram::stdev     0.553536                       # delay_histogram (Unspecified)
system.caches.controllers0.delayHistogram::0-1        44867     98.95%     98.95% # delay_histogram (Unspecified)
system.caches.controllers0.delayHistogram::2-3          115      0.25%     99.20% # delay_histogram (Unspecified)
system.caches.controllers0.delayHistogram::4-5          116      0.26%     99.46% # delay_histogram (Unspecified)
system.caches.controllers0.delayHistogram::6-7          161      0.36%     99.81% # delay_histogram (Unspecified)
system.caches.controllers0.delayHistogram::8-9           82      0.18%     99.99% # delay_histogram (Unspecified)
system.caches.controllers0.delayHistogram::12-13            1      0.00%    100.00% # delay_histogram (Unspecified)
system.caches.controllers0.delayHistogram::16-17            2      0.00%    100.00% # delay_histogram (Unspecified)
system.caches.controllers0.delayHistogram::total        45344                       # delay_histogram (Unspecified)
system.caches.controllers0.cacheMemory.m_demand_hits      1968539                       # Number of cache demand hits (Unspecified)
system.caches.controllers0.cacheMemory.m_demand_misses        22929                       # Number of cache demand misses (Unspecified)
system.caches.controllers0.cacheMemory.m_demand_accesses      1991468                       # Number of cache demand accesses (Unspecified)
system.caches.controllers0.forwardToCache.m_buf_msgs     0.004062                       # Average number of messages in buffer (Unspecified)
system.caches.controllers0.forwardToCache.m_stall_time  5007.262417                       # Average number of cycles messages are stalled in this MB (Unspecified)
system.caches.controllers0.mandatoryQueue.m_buf_msgs     0.360905                       # Average number of messages in buffer (Unspecified)
system.caches.controllers0.mandatoryQueue.m_stall_time  1000.336666                       # Average number of cycles messages are stalled in this MB (Unspecified)
system.caches.controllers0.power_state.pwrStateResidencyTicks::UNDEFINED   5518824000                       # Cumulative time (in ticks) in various power states (Tick)
system.caches.controllers0.requestFromCache.m_buf_msgs     0.016433                       # Average number of messages in buffer (Unspecified)
system.caches.controllers0.requestFromCache.m_stall_time  1999.998913                       # Average number of cycles messages are stalled in this MB (Unspecified)
system.caches.controllers0.responseToCache.m_buf_msgs     0.004155                       # Average number of messages in buffer (Unspecified)
system.caches.controllers0.responseToCache.m_stall_time  5000.487241                       # Average number of cycles messages are stalled in this MB (Unspecified)
system.caches.controllers1.forwardFromDir.m_buf_msgs     0.004062                       # Average number of messages in buffer (Unspecified)
system.caches.controllers1.forwardFromDir.m_stall_time   998.301269                       # Average number of cycles messages are stalled in this MB (Unspecified)
system.caches.controllers1.power_state.pwrStateResidencyTicks::UNDEFINED   5518824000                       # Cumulative time (in ticks) in various power states (Tick)
system.caches.controllers1.requestToDir.m_buf_msgs     0.008216                       # Average number of messages in buffer (Unspecified)
system.caches.controllers1.requestToDir.m_stall_time 10145.946854                       # Average number of cycles messages are stalled in this MB (Unspecified)
system.caches.controllers1.requestToMemory.m_buf_msgs     0.008218                       # Average number of messages in buffer (Unspecified)
system.caches.controllers1.requestToMemory.m_stall_time  1000.028267                       # Average number of cycles messages are stalled in this MB (Unspecified)
system.caches.controllers1.responseFromDir.m_buf_msgs     0.004155                       # Average number of messages in buffer (Unspecified)
system.caches.controllers1.responseFromDir.m_stall_time   999.987497                       # Average number of cycles messages are stalled in this MB (Unspecified)
system.caches.controllers1.responseFromMemory.m_buf_msgs     0.009930                       # Average number of messages in buffer (Unspecified)
system.caches.controllers1.responseFromMemory.m_stall_time   999.987679                       # Average number of cycles messages are stalled in this MB (Unspecified)
system.caches.network.msg_count.Control         45856                       (Unspecified)
system.caches.network.msg_byte.Control         366848                       (Unspecified)
system.caches.network.msg_count.Data            44832                       (Unspecified)
system.caches.network.msg_byte.Data           3227904                       (Unspecified)
system.caches.network.msg_count.Response_Data        45856                       (Unspecified)
system.caches.network.msg_byte.Response_Data      3301632                       (Unspecified)
system.caches.network.msg_count.Writeback_Control        44832                       (Unspecified)
system.caches.network.msg_byte.Writeback_Control       358656                       (Unspecified)
system.caches.network.int_link_buffers2.m_buf_msgs     0.000004                       # Average number of messages in buffer (Unspecified)
system.caches.network.int_link_buffers2.m_stall_time  7999.964401                       # Average number of cycles messages are stalled in this MB (Unspecified)
system.caches.network.int_link_buffers8.m_buf_msgs     0.000002                       # Average number of messages in buffer (Unspecified)
system.caches.network.int_link_buffers8.m_stall_time         3000                       # Average number of cycles messages are stalled in this MB (Unspecified)
system.caches.network.int_link_buffers9.m_buf_msgs     0.000002                       # Average number of messages in buffer (Unspecified)
system.caches.network.int_link_buffers9.m_stall_time         3000                       # Average number of cycles messages are stalled in this MB (Unspecified)
system.caches.network.power_state.pwrStateResidencyTicks::UNDEFINED   5518824000                       # Cumulative time (in ticks) in various power states (Tick)
system.caches.network.routers0.percent_links_utilized     0.001112                       (Unspecified)
system.caches.network.routers0.msg_count.Control::2        22928                       (Unspecified)
system.caches.network.routers0.msg_bytes.Control::2       183424                       (Unspecified)
system.caches.network.routers0.msg_count.Data::2        22416                       (Unspecified)
system.caches.network.routers0.msg_bytes.Data::2      1613952                       (Unspecified)
system.caches.network.routers0.msg_count.Response_Data::4        22928                       (Unspecified)
system.caches.network.routers0.msg_bytes.Response_Data::4      1650816                       (Unspecified)
system.caches.network.routers0.msg_count.Writeback_Control::3        22416                       (Unspecified)
system.caches.network.routers0.msg_bytes.Writeback_Control::3       179328                       (Unspecified)
system.caches.network.routers0.port_buffers3.m_buf_msgs     0.004062                       # Average number of messages in buffer (Unspecified)
system.caches.network.routers0.port_buffers3.m_stall_time  4008.962598                       # Average number of cycles messages are stalled in this MB (Unspecified)
system.caches.network.routers0.port_buffers4.m_buf_msgs     0.004155                       # Average number of messages in buffer (Unspecified)
system.caches.network.routers0.port_buffers4.m_stall_time  4000.501194                       # Average number of cycles messages are stalled in this MB (Unspecified)
system.caches.network.routers0.port_buffers7.m_buf_msgs     0.028733                       # Average number of messages in buffer (Unspecified)
system.caches.network.routers0.port_buffers7.m_stall_time  7145.954464                       # Average number of cycles messages are stalled in this MB (Unspecified)
system.caches.network.routers0.power_state.pwrStateResidencyTicks::UNDEFINED   5518824000                       # Cumulative time (in ticks) in various power states (Tick)
system.caches.network.routers0.throttle00.link_utilization     0.001112                       (Unspecified)
system.caches.network.routers0.throttle00.msg_count.Response_Data::4        22928                       (Unspecified)
system.caches.network.routers0.throttle00.msg_bytes.Response_Data::4      1650816                       (Unspecified)
system.caches.network.routers0.throttle00.msg_count.Writeback_Control::3        22416                       (Unspecified)
system.caches.network.routers0.throttle00.msg_bytes.Writeback_Control::3       179328                       (Unspecified)
system.caches.network.routers0.throttle01.link_utilization     0.001112                       (Unspecified)
system.caches.network.routers0.throttle01.msg_count.Control::2        22928                       (Unspecified)
system.caches.network.routers0.throttle01.msg_bytes.Control::2       183424                       (Unspecified)
system.caches.network.routers0.throttle01.msg_count.Data::2        22416                       (Unspecified)
system.caches.network.routers0.throttle01.msg_bytes.Data::2      1613952                       (Unspecified)
system.caches.network.routers1.percent_links_utilized     0.001112                       (Unspecified)
system.caches.network.routers1.msg_count.Control::2        22928                       (Unspecified)
system.caches.network.routers1.msg_bytes.Control::2       183424                       (Unspecified)
system.caches.network.routers1.msg_count.Data::2        22416                       (Unspecified)
system.caches.network.routers1.msg_bytes.Data::2      1613952                       (Unspecified)
system.caches.network.routers1.msg_count.Response_Data::4        22928                       (Unspecified)
system.caches.network.routers1.msg_bytes.Response_Data::4      1650816                       (Unspecified)
system.caches.network.routers1.msg_count.Writeback_Control::3        22416                       (Unspecified)
system.caches.network.routers1.msg_bytes.Writeback_Control::3       179328                       (Unspecified)
system.caches.network.routers1.port_buffers2.m_buf_msgs     0.008216                       # Average number of messages in buffer (Unspecified)
system.caches.network.routers1.port_buffers2.m_stall_time  9145.949753                       # Average number of cycles messages are stalled in this MB (Unspecified)
system.caches.network.routers1.port_buffers6.m_buf_msgs     0.004268                       # Average number of messages in buffer (Unspecified)
system.caches.network.routers1.port_buffers6.m_stall_time  2012.361873                       # Average number of cycles messages are stalled in this MB (Unspecified)
system.caches.network.routers1.port_buffers7.m_buf_msgs     0.004162                       # Average number of messages in buffer (Unspecified)
system.caches.network.routers1.port_buffers7.m_stall_time  2000.528011                       # Average number of cycles messages are stalled in this MB (Unspecified)
system.caches.network.routers1.power_state.pwrStateResidencyTicks::UNDEFINED   5518824000                       # Cumulative time (in ticks) in various power states (Tick)
system.caches.network.routers1.throttle00.link_utilization     0.001112                       (Unspecified)
system.caches.network.routers1.throttle00.msg_count.Control::2        22928                       (Unspecified)
system.caches.network.routers1.throttle00.msg_bytes.Control::2       183424                       (Unspecified)
system.caches.network.routers1.throttle00.msg_count.Data::2        22416                       (Unspecified)
system.caches.network.routers1.throttle00.msg_bytes.Data::2      1613952                       (Unspecified)
system.caches.network.routers1.throttle01.link_utilization     0.001112                       (Unspecified)
system.caches.network.routers1.throttle01.msg_count.Response_Data::4        22928                       (Unspecified)
system.caches.network.routers1.throttle01.msg_bytes.Response_Data::4      1650816                       (Unspecified)
system.caches.network.routers1.throttle01.msg_count.Writeback_Control::3        22416                       (Unspecified)
system.caches.network.routers1.throttle01.msg_bytes.Writeback_Control::3       179328                       (Unspecified)
system.caches.power_state.pwrStateResidencyTicks::UNDEFINED   5518824000                       # Cumulative time (in ticks) in various power states (Tick)
system.caches.sequencers.power_state.pwrStateResidencyTicks::UNDEFINED   5518824000                       # Cumulative time (in ticks) in various power states (Tick)
system.caches.sys_port_proxy.power_state.pwrStateResidencyTicks::UNDEFINED   5518824000                       # Cumulative time (in ticks) in various power states (Tick)
system.clk_domain.clock                          1000                       # Clock period in ticks (Tick)
system.clk_domain.voltage_domain.voltage            1                       # Voltage in Volts (Volt)
system.cpu.numCycles                          3146115                       # Number of cpu cycles simulated (Cycle)
system.cpu.numWorkItemsStarted                      0                       # Number of work items this cpu started (Count)
system.cpu.numWorkItemsCompleted                    0                       # Number of work items this cpu completed (Count)
system.cpu.instsAdded                         8388845                       # Number of instructions added to the IQ (excludes non-spec) (Count)
system.cpu.nonSpecInstsAdded                        3                       # Number of non-speculative instructions added to the IQ (Count)
system.cpu.instsIssued                        8388808                       # Number of instructions issued (Count)
system.cpu.squashedInstsIssued                      6                       # Number of squashed instructions issued (Count)
system.cpu.squashedInstsExamined                  150                       # Number of squashed instructions iterated over during squash; mainly for profiling (Count)
system.cpu.squashedOperandsExamined                84                       # Number of squashed operands that are examined and possibly removed from graph (Count)
system.cpu.squashedNonSpecRemoved                   2                       # Number of squashed non-spec instructions that were removed (Count)
system.cpu.numIssuedDist::samples             3146115                       # Number of insts issued each cycle (Count)
system.cpu.numIssuedDist::mean               2.666402                       # Number of insts issued each cycle (Count)
system.cpu.numIssuedDist::stdev              1.333605                       # Number of insts issued each cycle (Count)
system.cpu.numIssuedDist::underflows                0      0.00%      0.00% # Number of insts issued each cycle (Count)
system.cpu.numIssuedDist::0                       348      0.01%      0.01% # Number of insts issued each cycle (Count)
system.cpu.numIssuedDist::1                    699073     22.22%     22.23% # Number of insts issued each cycle (Count)
system.cpu.numIssuedDist::2                   1048555     33.33%     55.56% # Number of insts issued each cycle (Count)
system.cpu.numIssuedDist::3                    349533     11.11%     66.67% # Number of insts issued each cycle (Count)
system.cpu.numIssuedDist::4                    699047     22.22%     88.89% # Number of insts issued each cycle (Count)
system.cpu.numIssuedDist::5                    349524     11.11%    100.00% # Number of insts issued each cycle (Count)
system.cpu.numIssuedDist::6                        29      0.00%    100.00% # Number of insts issued each cycle (Count)
system.cpu.numIssuedDist::7                         4      0.00%    100.00% # Number of insts issued each cycle (Count)
system.cpu.numIssuedDist::8                         2      0.00%    100.00% # Number of insts issued each cycle (Count)
system.cpu.numIssuedDist::overflows                 0      0.00%    100.00% # Number of insts issued each cycle (Count)
system.cpu.numIssuedDist::min_value                 0                       # Number of insts issued each cycle (Count)
system.cpu.numIssuedDist::max_value                 8                       # Number of insts issued each cycle (Count)
system.cpu.numIssuedDist::total               3146115                       # Number of insts issued each cycle (Count)
system.cpu.statFuBusy::No_OpClass                   0      0.00%      0.00% # attempts to use FU when none available (Count)
system.cpu.statFuBusy::IntAlu                      14    100.00%    100.00% # attempts to use FU when none available (Count)
system.cpu.statFuBusy::IntMult                      0      0.00%    100.00% # attempts to use FU when none available (Count)
system.cpu.statFuBusy::IntDiv                       0      0.00%    100.00% # attempts to use FU when none available (Count)
system.cpu.statFuBusy::FloatAdd                     0      0.00%    100.00% # attempts to use FU when none available (Count)
system.cpu.statFuBusy::FloatCmp                     0      0.00%    100.00% # attempts to use FU when none available (Count)
system.cpu.statFuBusy::FloatCvt                     0      0.00%    100.00% # attempts to use FU when none available (Count)
system.cpu.statFuBusy::FloatMult                    0      0.00%    100.00% # attempts to use FU when none available (Count)
system.cpu.statFuBusy::FloatMultAcc                 0      0.00%    100.00% # attempts to use FU when none available (Count)
system.cpu.statFuBusy::FloatDiv                     0      0.00%    100.00% # attempts to use FU when none available (Count)
system.cpu.statFuBusy::FloatMisc                    0      0.00%    100.00% # attempts to use FU when none available (Count)
system.cpu.statFuBusy::FloatSqrt                    0      0.00%    100.00% # attempts to use FU when none available (Count)
system.cpu.statFuBusy::SimdAdd                      0      0.00%    100.00% # attempts to use FU when none available (Count)
system.cpu.statFuBusy::SimdAddAcc                   0      0.00%    100.00% # attempts to use FU when none available (Count)
system.cpu.statFuBusy::SimdAlu                      0      0.00%    100.00% # attempts to use FU when none available (Count)
system.cpu.statFuBusy::SimdCmp                      0      0.00%    100.00% # attempts to use FU when none available (Count)
system.cpu.statFuBusy::SimdCvt                      0      0.00%    100.00% # attempts to use FU when none available (Count)
system.cpu.statFuBusy::SimdMisc                     0      0.00%    100.00% # attempts to use FU when none available (Count)
system.cpu.statFuBusy::SimdMult                     0      0.00%    100.00% # attempts to use FU when none available (Count)
system.cpu.statFuBusy::SimdMultAcc                  0      0.00%    100.00% # attempts to use FU when none available (Count)
system.cpu.statFuBusy::SimdShift                    0      0.00%    100.00% # attempts to use FU when none available (Count)
system.cpu.statFuBusy::SimdShiftAcc                 0      0.00%    100.00% # attempts to use FU when none available (Count)
system.cpu.statFuBusy::SimdDiv                      0      0.00%    100.00% # attempts to use FU when none available (Count)
system.cpu.statFuBusy::SimdSqrt                     0      0.00%    100.00% # attempts to use FU when none available (Count)
system.cpu.statFuBusy::SimdFloatAdd                 0      0.00%    100.00% # attempts to use FU when none available (Count)
system.cpu.statFuBusy::SimdFloatAlu                 0      0.00%    100.00% # attempts to use FU when none available (Count)
system.cpu.statFuBusy::SimdFloatCmp                 0      0.00%    100.00% # attempts to use FU when none available (Count)
system.cpu.statFuBusy::SimdFloatCvt                 0      0.00%    100.00% # attempts to use FU when none available (Count)
system.cpu.statFuBusy::SimdFloatDiv                 0      0.00%    100.00% # attempts to use FU when none available (Count)
system.cpu.statFuBusy::SimdFloatMisc                0      0.00%    100.00% # attempts to use FU when none available (Count)
system.cpu.statFuBusy::SimdFloatMult                0      0.00%    100.00% # attempts to use FU when none available (Count)
system.cpu.statFuBusy::SimdFloatMultAcc             0      0.00%    100.00% # attempts to use FU when none available (Count)
system.cpu.statFuBusy::SimdFloatSqrt                0      0.00%    100.00% # attempts to use FU when none available (Count)
system.cpu.statFuBusy::SimdReduceAdd                0      0.00%    100.00% # attempts to use FU when none available (Count)
system.cpu.statFuBusy::SimdReduceAlu                0      0.00%    100.00% # attempts to use FU when none available (Count)
system.cpu.statFuBusy::SimdReduceCmp                0      0.00%    100.00% # attempts to use FU when none available (Count)
system.cpu.statFuBusy::SimdFloatReduceAdd            0      0.00%    100.00% # attempts to use FU when none available (Count)
system.cpu.statFuBusy::SimdFloatReduceCmp            0      0.00%    100.00% # attempts to use FU when none available (Count)
system.cpu.statFuBusy::SimdAes                      0      0.00%    100.00% # attempts to use FU when none available (Count)
system.cpu.statFuBusy::SimdAesMix                   0      0.00%    100.00% # attempts to use FU when none available (Count)
system.cpu.statFuBusy::SimdSha1Hash                 0      0.00%    100.00% # attempts to use FU when none available (Count)
system.cpu.statFuBusy::SimdSha1Hash2                0      0.00%    100.00% # attempts to use FU when none available (Count)
system.cpu.statFuBusy::SimdSha256Hash               0      0.00%    100.00% # attempts to use FU when none available (Count)
system.cpu.statFuBusy::SimdSha256Hash2              0      0.00%    100.00% # attempts to use FU when none available (Count)
system.cpu.statFuBusy::SimdShaSigma2                0      0.00%    100.00% # attempts to use FU when none available (Count)
system.cpu.statFuBusy::SimdShaSigma3                0      0.00%    100.00% # attempts to use FU when none available (Count)
system.cpu.statFuBusy::SimdPredAlu                  0      0.00%    100.00% # attempts to use FU when none available (Count)
system.cpu.statFuBusy::MemRead                      0      0.00%    100.00% # attempts to use FU when none available (Count)
system.cpu.statFuBusy::MemWrite                     0      0.00%    100.00% # attempts to use FU when none available (Count)
system.cpu.statFuBusy::FloatMemRead                 0      0.00%    100.00% # attempts to use FU when none available (Count)
system.cpu.statFuBusy::FloatMemWrite                0      0.00%    100.00% # attempts to use FU when none available (Count)
system.cpu.statFuBusy::IprAccess                    0      0.00%    100.00% # attempts to use FU when none available (Count)
system.cpu.statFuBusy::InstPrefetch                 0      0.00%    100.00% # attempts to use FU when none available (Count)
system.cpu.statIssuedInstType_0::No_OpClass           19      0.00%      0.00% # Number of instructions issued per FU type, per thread (Count)
system.cpu.statIssuedInstType_0::IntAlu       7340178     87.50%     87.50% # Number of instructions issued per FU type, per thread (Count)
system.cpu.statIssuedInstType_0::IntMult            0      0.00%     87.50% # Number of instructions issued per FU type, per thread (Count)
system.cpu.statIssuedInstType_0::IntDiv             0      0.00%     87.50% # Number of instructions issued per FU type, per thread (Count)
system.cpu.statIssuedInstType_0::FloatAdd            0      0.00%     87.50% # Number of instructions issued per FU type, per thread (Count)
system.cpu.statIssuedInstType_0::FloatCmp            0      0.00%     87.50% # Number of instructions issued per FU type, per thread (Count)
system.cpu.statIssuedInstType_0::FloatCvt            0      0.00%     87.50% # Number of instructions issued per FU type, per thread (Count)
system.cpu.statIssuedInstType_0::FloatMult            0      0.00%     87.50% # Number of instructions issued per FU type, per thread (Count)
system.cpu.statIssuedInstType_0::FloatMultAcc            0      0.00%     87.50% # Number of instructions issued per FU type, per thread (Count)
system.cpu.statIssuedInstType_0::FloatDiv            0      0.00%     87.50% # Number of instructions issued per FU type, per thread (Count)
system.cpu.statIssuedInstType_0::FloatMisc            0      0.00%     87.50% # Number of instructions issued per FU type, per thread (Count)
system.cpu.statIssuedInstType_0::FloatSqrt            0      0.00%     87.50% # Number of instructions issued per FU type, per thread (Count)
system.cpu.statIssuedInstType_0::SimdAdd            0      0.00%     87.50% # Number of instructions issued per FU type, per thread (Count)
system.cpu.statIssuedInstType_0::SimdAddAcc            0      0.00%     87.50% # Number of instructions issued per FU type, per thread (Count)
system.cpu.statIssuedInstType_0::SimdAlu            0      0.00%     87.50% # Number of instructions issued per FU type, per thread (Count)
system.cpu.statIssuedInstType_0::SimdCmp            0      0.00%     87.50% # Number of instructions issued per FU type, per thread (Count)
system.cpu.statIssuedInstType_0::SimdCvt            0      0.00%     87.50% # Number of instructions issued per FU type, per thread (Count)
system.cpu.statIssuedInstType_0::SimdMisc            0      0.00%     87.50% # Number of instructions issued per FU type, per thread (Count)
system.cpu.statIssuedInstType_0::SimdMult            0      0.00%     87.50% # Number of instructions issued per FU type, per thread (Count)
system.cpu.statIssuedInstType_0::SimdMultAcc            0      0.00%     87.50% # Number of instructions issued per FU type, per thread (Count)
system.cpu.statIssuedInstType_0::SimdShift            0      0.00%     87.50% # Number of instructions issued per FU type, per thread (Count)
system.cpu.statIssuedInstType_0::SimdShiftAcc            0      0.00%     87.50% # Number of instructions issued per FU type, per thread (Count)
system.cpu.statIssuedInstType_0::SimdDiv            0      0.00%     87.50% # Number of instructions issued per FU type, per thread (Count)
system.cpu.statIssuedInstType_0::SimdSqrt            0      0.00%     87.50% # Number of instructions issued per FU type, per thread (Count)
system.cpu.statIssuedInstType_0::SimdFloatAdd            0      0.00%     87.50% # Number of instructions issued per FU type, per thread (Count)
system.cpu.statIssuedInstType_0::SimdFloatAlu            0      0.00%     87.50% # Number of instructions issued per FU type, per thread (Count)
system.cpu.statIssuedInstType_0::SimdFloatCmp            0      0.00%     87.50% # Number of instructions issued per FU type, per thread (Count)
system.cpu.statIssuedInstType_0::SimdFloatCvt            0      0.00%     87.50% # Number of instructions issued per FU type, per thread (Count)
system.cpu.statIssuedInstType_0::SimdFloatDiv            0      0.00%     87.50% # Number of instructions issued per FU type, per thread (Count)
system.cpu.statIssuedInstType_0::SimdFloatMisc            0      0.00%     87.50% # Number of instructions issued per FU type, per thread (Count)
system.cpu.statIssuedInstType_0::SimdFloatMult            0      0.00%     87.50% # Number of instructions issued per FU type, per thread (Count)
system.cpu.statIssuedInstType_0::SimdFloatMultAcc            0      0.00%     87.50% # Number of instructions issued per FU type, per thread (Count)
system.cpu.statIssuedInstType_0::SimdFloatSqrt            0      0.00%     87.50% # Number of instructions issued per FU type, per thread (Count)
system.cpu.statIssuedInstType_0::SimdReduceAdd            0      0.00%     87.50% # Number of instructions issued per FU type, per thread (Count)
system.cpu.statIssuedInstType_0::SimdReduceAlu            0      0.00%     87.50% # Number of instructions issued per FU type, per thread (Count)
system.cpu.statIssuedInstType_0::SimdReduceCmp            0      0.00%     87.50% # Number of instructions issued per FU type, per thread (Count)
system.cpu.statIssuedInstType_0::SimdFloatReduceAdd            0      0.00%     87.50% # Number of instructions issued per FU type, per thread (Count)
system.cpu.statIssuedInstType_0::SimdFloatReduceCmp            0      0.00%     87.50% # Number of instructions issued per FU type, per thread (Count)
system.cpu.statIssuedInstType_0::SimdAes            0      0.00%     87.50% # Number of instructions issued per FU type, per thread (Count)
system.cpu.statIssuedInstType_0::SimdAesMix            0      0.00%     87.50% # Number of instructions issued per FU type, per thread (Count)
system.cpu.statIssuedInstType_0::SimdSha1Hash            0      0.00%     87.50% # Number of instructions issued per FU type, per thread (Count)
system.cpu.statIssuedInstType_0::SimdSha1Hash2            0      0.00%     87.50% # Number of instructions issued per FU type, per thread (Count)
system.cpu.statIssuedInstType_0::SimdSha256Hash            0      0.00%     87.50% # Number of instructions issued per FU type, per thread (Count)
system.cpu.statIssuedInstType_0::SimdSha256Hash2            0      0.00%     87.50% # Number of instructions issued per FU type, per thread (Count)
system.cpu.statIssuedInstType_0::SimdShaSigma2            0      0.00%     87.50% # Number of instructions issued per FU type, per thread (Count)
system.cpu.statIssuedInstType_0::SimdShaSigma3            0      0.00%     87.50% # Number of instructions issued per FU type, per thread (Count)
system.cpu.statIssuedInstType_0::SimdPredAlu            0      0.00%     87.50% # Number of instructions issued per FU type, per thread (Count)
system.cpu.statIssuedInstType_0::MemRead      1048597     12.50%    100.00% # Number of instructions issued per FU type, per thread (Count)
system.cpu.statIssuedInstType_0::MemWrite           14      0.00%    100.00% # Number of instructions issued per FU type, per thread (Count)
system.cpu.statIssuedInstType_0::FloatMemRead            0      0.00%    100.00% # Number of instructions issued per FU type, per thread (Count)
system.cpu.statIssuedInstType_0::FloatMemWrite            0      0.00%    100.00% # Number of instructions issued per FU type, per thread (Count)
system.cpu.statIssuedInstType_0::IprAccess            0      0.00%    100.00% # Number of instructions issued per FU type, per thread (Count)
system.cpu.statIssuedInstType_0::InstPrefetch            0      0.00%    100.00% # Number of instructions issued per FU type, per thread (Count)
system.cpu.statIssuedInstType_0::total        8388808                       # Number of instructions issued per FU type, per thread (Count)
system.cpu.issueRate                         2.666402                       # Inst issue rate ((Count/Cycle))
system.cpu.fuBusy                                  14                       # FU busy when requested (Count)
system.cpu.fuBusyRate                        0.000002                       # FU busy rate (busy events/executed inst) ((Count/Count))
system.cpu.intInstQueueReads                 19923748                       # Number of integer instruction queue reads (Count)
system.cpu.intInstQueueWrites                 8388998                       # Number of integer instruction queue writes (Count)
system.cpu.intInstQueueWakeupAccesses         8388785                       # Number of integer instruction queue wakeup accesses (Count)
system.cpu.fpInstQueueReads                         0                       # Number of floating instruction queue reads (Count)
system.cpu.fpInstQueueWrites                        0                       # Number of floating instruction queue writes (Count)
system.cpu.fpInstQueueWakeupAccesses                0                       # Number of floating instruction queue wakeup accesses (Count)
system.cpu.vecInstQueueReads                        0                       # Number of vector instruction queue reads (Count)
system.cpu.vecInstQueueWrites                       0                       # Number of vector instruction queue writes (Count)
system.cpu.vecInstQueueWakeupAccesses               0                       # Number of vector instruction queue wakeup accesses (Count)
system.cpu.intAluAccesses                     8388803                       # Number of integer alu accesses (Count)
system.cpu.fpAluAccesses                            0                       # Number of floating point alu accesses (Count)
system.cpu.vecAluAccesses                           0                       # Number of vector alu accesses (Count)
system.cpu.idleCycles                               0                       # Number of cycles IEW is idle (Cycle)
system.cpu.squashCycles                             8                       # Number of cycles IEW is squashing (Cycle)
system.cpu.blockCycles                             13                       # Number of cycles IEW is blocking (Cycle)
system.cpu.unblockCycles                            0                       # Number of cycles IEW is unblocking (Cycle)
system.cpu.dispatchedInsts                    8388848                       # Number of instructions dispatched to IQ (Count)
system.cpu.dispSquashedInsts                        4                       # Number of squashed instructions skipped by dispatch (Count)
system.cpu.dispLoadInsts                      1048606                       # Number of dispatched load instructions (Count)
system.cpu.dispStoreInsts                          17                       # Number of dispatched store instructions (Count)
system.cpu.dispNonSpecInsts                         3                       # Number of dispatched non-speculative instructions (Count)
system.cpu.iqFullEvents                             0                       # Number of times the IQ has become full, causing a stall (Count)
system.cpu.lsqFullEvents                            0                       # Number of times the LSQ has become full, causing a stall (Count)
system.cpu.memOrderViolationEvents                  0                       # Number of memory order violations (Count)
system.cpu.predictedTakenIncorrect                  1                       # Number of branches that were predicted taken incorrectly (Count)
system.cpu.predictedNotTakenIncorrect               9                       # Number of branches that were predicted not taken incorrectly (Count)
system.cpu.branchMispredicts                       10                       # Number of branch mispredicts detected at execute (Count)
system.cpu.numInsts                           8388791                       # Number of executed instructions (Count)
system.cpu.numLoadInsts                       1048595                       # Number of load instructions executed (Count)
system.cpu.numSquashedInsts                        14                       # Number of squashed instructions skipped in execute (Count)
system.cpu.numSwp                                   0                       # Number of swp insts executed (Count)
system.cpu.numNop                                   0                       # Number of nop insts executed (Count)
system.cpu.numRefs                            1048607                       # Number of memory reference insts executed (Count)
system.cpu.numBranches                        1048598                       # Number of branches executed (Count)
system.cpu.numStoreInsts                           12                       # Number of stores executed (Count)
system.cpu.numRate                           2.666397                       # Inst execution rate ((Count/Cycle))
system.cpu.instsToCommit                      8388787                       # Cumulative count of insts sent to commit (Count)
system.cpu.writebackCount                     8388785                       # Cumulative count of insts written-back (Count)
system.cpu.producerInst                       7340116                       # Number of instructions producing a value (Count)
system.cpu.consumerInst                       8738268                       # Number of instructions consuming a value (Count)
system.cpu.wbRate                            2.666395                       # Insts written-back per cycle ((Count/Cycle))
system.cpu.wbFanout                          0.839997                       # Average fanout of values written-back ((Count/Count))
system.cpu.committedInsts                     4194313                       # Number of Instructions Simulated (Count)
system.cpu.committedOps                       8388625                       # Number of Ops (including micro ops) Simulated (Count)
system.cpu.cpi                               0.750091                       # CPI: Cycles Per Instruction ((Cycle/Count))
system.cpu.totalCpi                          0.750091                       # CPI: Total CPI of All Threads ((Cycle/Count))
system.cpu.ipc                               1.333172                       # IPC: Instructions Per Cycle ((Count/Cycle))
system.cpu.totalIpc                          1.333172                       # IPC: Total IPC of All Threads ((Count/Cycle))
system.cpu.intRegfileReads                    8388813                       # Number of integer regfile reads (Count)
system.cpu.intRegfileWrites                   7340160                       # Number of integer regfile writes (Count)
system.cpu.ccRegfileReads                     5242917                       # number of cc regfile reads (Count)
system.cpu.ccRegfileWrites                    4194350                       # number of cc regfile writes (Count)
system.cpu.miscRegfileReads                   3145809                       # number of misc regfile reads (Count)
system.cpu.MemDepUnit__0.insertedLoads        1048606                       # Number of loads inserted to the mem dependence unit. (Count)
system.cpu.MemDepUnit__0.insertedStores            17                       # Number of stores inserted to the mem dependence unit. (Count)
system.cpu.MemDepUnit__0.conflictingLoads            0                       # Number of conflicting loads. (Count)
system.cpu.MemDepUnit__0.conflictingStores            0                       # Number of conflicting stores. (Count)
system.cpu.MemDepUnit__1.insertedLoads              0                       # Number of loads inserted to the mem dependence unit. (Count)
system.cpu.MemDepUnit__1.insertedStores             0                       # Number of stores inserted to the mem dependence unit. (Count)
system.cpu.MemDepUnit__1.conflictingLoads            0                       # Number of conflicting loads. (Count)
system.cpu.MemDepUnit__1.conflictingStores            0                       # Number of conflicting stores. (Count)
system.cpu.MemDepUnit__2.insertedLoads              0                       # Number of loads inserted to the mem dependence unit. (Count)
system.cpu.MemDepUnit__2.insertedStores             0                       # Number of stores inserted to the mem dependence unit. (Count)
system.cpu.MemDepUnit__2.conflictingLoads            0                       # Number of conflicting loads. (Count)
system.cpu.MemDepUnit__2.conflictingStores            0                       # Number of conflicting stores. (Count)
system.cpu.MemDepUnit__3.insertedLoads              0                       # Number of loads inserted to the mem dependence unit. (Count)
system.cpu.MemDepUnit__3.insertedStores             0                       # Number of stores inserted to the mem dependence unit. (Count)
system.cpu.MemDepUnit__3.conflictingLoads            0                       # Number of conflicting loads. (Count)
system.cpu.MemDepUnit__3.conflictingStores            0                       # Number of conflicting stores. (Count)
system.cpu.branchPred.lookups                 1048629                       # Number of BP lookups (Count)
system.cpu.branchPred.condPredicted           1048591                       # Number of conditional branches predicted (Count)
system.cpu.branchPred.condIncorrect                10                       # Number of conditional branches incorrect (Count)
system.cpu.branchPred.BTBLookups              1048594                       # Number of BTB lookups (Count)
system.cpu.branchPred.BTBHits                 1048591                       # Number of BTB hits (Count)
system.cpu.branchPred.BTBHitRatio            0.999997                       # BTB Hit Ratio (Ratio)
system.cpu.branchPred.RASUsed                       8                       # Number of times the RAS was used to get a target. (Count)
system.cpu.branchPred.RASIncorrect                  0                       # Number of incorrect RAS predictions. (Count)
system.cpu.branchPred.indirectLookups              18                       # Number of indirect predictor lookups. (Count)
system.cpu.branchPred.indirectHits                  1                       # Number of indirect target hits. (Count)
system.cpu.branchPred.indirectMisses               17                       # Number of indirect misses. (Count)
system.cpu.branchPred.indirectMispredicted            3                       # Number of mispredicted indirect branches. (Count)
system.cpu.commit.commitSquashedInsts              47                       # The number of squashed insts skipped by commit (Count)
system.cpu.commit.commitNonSpecStalls               1                       # The number of times commit has been forced to stall to communicate backwards (Count)
system.cpu.commit.branchMispredicts                 8                       # The number of times a branch was mispredicted (Count)
system.cpu.commit.numCommittedDist::samples      3146094                       # Number of insts commited each cycle (Count)
system.cpu.commit.numCommittedDist::mean     2.666362                       # Number of insts commited each cycle (Count)
system.cpu.commit.numCommittedDist::stdev     3.771125                       # Number of insts commited each cycle (Count)
system.cpu.commit.numCommittedDist::underflows            0      0.00%      0.00% # Number of insts commited each cycle (Count)
system.cpu.commit.numCommittedDist::0         2097511     66.67%     66.67% # Number of insts commited each cycle (Count)
system.cpu.commit.numCommittedDist::1               3      0.00%     66.67% # Number of insts commited each cycle (Count)
system.cpu.commit.numCommittedDist::2               0      0.00%     66.67% # Number of insts commited each cycle (Count)
system.cpu.commit.numCommittedDist::3               2      0.00%     66.67% # Number of insts commited each cycle (Count)
system.cpu.commit.numCommittedDist::4               0      0.00%     66.67% # Number of insts commited each cycle (Count)
system.cpu.commit.numCommittedDist::5               2      0.00%     66.67% # Number of insts commited each cycle (Count)
system.cpu.commit.numCommittedDist::6               1      0.00%     66.67% # Number of insts commited each cycle (Count)
system.cpu.commit.numCommittedDist::7               0      0.00%     66.67% # Number of insts commited each cycle (Count)
system.cpu.commit.numCommittedDist::8         1048575     33.33%    100.00% # Number of insts commited each cycle (Count)
system.cpu.commit.numCommittedDist::overflows            0      0.00%    100.00% # Number of insts commited each cycle (Count)
system.cpu.commit.numCommittedDist::min_value            0                       # Number of insts commited each cycle (Count)
system.cpu.commit.numCommittedDist::max_value            8                       # Number of insts commited each cycle (Count)
system.cpu.commit.numCommittedDist::total      3146094                       # Number of insts commited each cycle (Count)
system.cpu.commit.instsCommitted              4194313                       # Number of instructions committed (Count)
system.cpu.commit.opsCommitted                8388625                       # Number of ops (including micro ops) committed (Count)
system.cpu.commit.memRefs                     1048578                       # Number of memory references committed (Count)
system.cpu.commit.loads                       1048577                       # Number of loads committed (Count)
system.cpu.commit.amos                              0                       # Number of atomic instructions committed (Count)
system.cpu.commit.membars                           0                       # Number of memory barriers committed (Count)
system.cpu.commit.branches                    1048579                       # Number of branches committed (Count)
system.cpu.commit.vectorInstructions                0                       # Number of committed Vector instructions. (Count)
system.cpu.commit.floating                          0                       # Number of committed floating point instructions. (Count)
system.cpu.commit.integer                     8388623                       # Number of committed integer instructions. (Count)
system.cpu.commit.functionCalls                     1                       # Number of function calls committed. (Count)
system.cpu.commit.committedInstType_0::No_OpClass            1      0.00%      0.00% # Class of committed instruction (Count)
system.cpu.commit.committedInstType_0::IntAlu      7340046     87.50%     87.50% # Class of committed instruction (Count)
system.cpu.commit.committedInstType_0::IntMult            0      0.00%     87.50% # Class of committed instruction (Count)
system.cpu.commit.committedInstType_0::IntDiv            0      0.00%     87.50% # Class of committed instruction (Count)
system.cpu.commit.committedInstType_0::FloatAdd            0      0.00%     87.50% # Class of committed instruction (Count)
system.cpu.commit.committedInstType_0::FloatCmp            0      0.00%     87.50% # Class of committed instruction (Count)
system.cpu.commit.committedInstType_0::FloatCvt            0      0.00%     87.50% # Class of committed instruction (Count)
system.cpu.commit.committedInstType_0::FloatMult            0      0.00%     87.50% # Class of committed instruction (Count)
system.cpu.commit.committedInstType_0::FloatMultAcc            0      0.00%     87.50% # Class of committed instruction (Count)
system.cpu.commit.committedInstType_0::FloatDiv            0      0.00%     87.50% # Class of committed instruction (Count)
system.cpu.commit.committedInstType_0::FloatMisc            0      0.00%     87.50% # Class of committed instruction (Count)
system.cpu.commit.committedInstType_0::FloatSqrt            0      0.00%     87.50% # Class of committed instruction (Count)
system.cpu.commit.committedInstType_0::SimdAdd            0      0.00%     87.50% # Class of committed instruction (Count)
system.cpu.commit.committedInstType_0::SimdAddAcc            0      0.00%     87.50% # Class of committed instruction (Count)
system.cpu.commit.committedInstType_0::SimdAlu            0      0.00%     87.50% # Class of committed instruction (Count)
system.cpu.commit.committedInstType_0::SimdCmp            0      0.00%     87.50% # Class of committed instruction (Count)
system.cpu.commit.committedInstType_0::SimdCvt            0      0.00%     87.50% # Class of committed instruction (Count)
system.cpu.commit.committedInstType_0::SimdMisc            0      0.00%     87.50% # Class of committed instruction (Count)
system.cpu.commit.committedInstType_0::SimdMult            0      0.00%     87.50% # Class of committed instruction (Count)
system.cpu.commit.committedInstType_0::SimdMultAcc            0      0.00%     87.50% # Class of committed instruction (Count)
system.cpu.commit.committedInstType_0::SimdShift            0      0.00%     87.50% # Class of committed instruction (Count)
system.cpu.commit.committedInstType_0::SimdShiftAcc            0      0.00%     87.50% # Class of committed instruction (Count)
system.cpu.commit.committedInstType_0::SimdDiv            0      0.00%     87.50% # Class of committed instruction (Count)
system.cpu.commit.committedInstType_0::SimdSqrt            0      0.00%     87.50% # Class of committed instruction (Count)
system.cpu.commit.committedInstType_0::SimdFloatAdd            0      0.00%     87.50% # Class of committed instruction (Count)
system.cpu.commit.committedInstType_0::SimdFloatAlu            0      0.00%     87.50% # Class of committed instruction (Count)
system.cpu.commit.committedInstType_0::SimdFloatCmp            0      0.00%     87.50% # Class of committed instruction (Count)
system.cpu.commit.committedInstType_0::SimdFloatCvt            0      0.00%     87.50% # Class of committed instruction (Count)
system.cpu.commit.committedInstType_0::SimdFloatDiv            0      0.00%     87.50% # Class of committed instruction (Count)
system.cpu.commit.committedInstType_0::SimdFloatMisc            0      0.00%     87.50% # Class of committed instruction (Count)
system.cpu.commit.committedInstType_0::SimdFloatMult            0      0.00%     87.50% # Class of committed instruction (Count)
system.cpu.commit.committedInstType_0::SimdFloatMultAcc            0      0.00%     87.50% # Class of committed instruction (Count)
system.cpu.commit.committedInstType_0::SimdFloatSqrt            0      0.00%     87.50% # Class of committed instruction (Count)
system.cpu.commit.committedInstType_0::SimdReduceAdd            0      0.00%     87.50% # Class of committed instruction (Count)
system.cpu.commit.committedInstType_0::SimdReduceAlu            0      0.00%     87.50% # Class of committed instruction (Count)
system.cpu.commit.committedInstType_0::SimdReduceCmp            0      0.00%     87.50% # Class of committed instruction (Count)
system.cpu.commit.committedInstType_0::SimdFloatReduceAdd            0      0.00%     87.50% # Class of committed instruction (Count)
system.cpu.commit.committedInstType_0::SimdFloatReduceCmp            0      0.00%     87.50% # Class of committed instruction (Count)
system.cpu.commit.committedInstType_0::SimdAes            0      0.00%     87.50% # Class of committed instruction (Count)
system.cpu.commit.committedInstType_0::SimdAesMix            0      0.00%     87.50% # Class of committed instruction (Count)
system.cpu.commit.committedInstType_0::SimdSha1Hash            0      0.00%     87.50% # Class of committed instruction (Count)
system.cpu.commit.committedInstType_0::SimdSha1Hash2            0      0.00%     87.50% # Class of committed instruction (Count)
system.cpu.commit.committedInstType_0::SimdSha256Hash            0      0.00%     87.50% # Class of committed instruction (Count)
system.cpu.commit.committedInstType_0::SimdSha256Hash2            0      0.00%     87.50% # Class of committed instruction (Count)
system.cpu.commit.committedInstType_0::SimdShaSigma2            0      0.00%     87.50% # Class of committed instruction (Count)
system.cpu.commit.committedInstType_0::SimdShaSigma3            0      0.00%     87.50% # Class of committed instruction (Count)
system.cpu.commit.committedInstType_0::SimdPredAlu            0      0.00%     87.50% # Class of committed instruction (Count)
system.cpu.commit.committedInstType_0::MemRead      1048577     12.50%    100.00% # Class of committed instruction (Count)
system.cpu.commit.committedInstType_0::MemWrite            1      0.00%    100.00% # Class of committed instruction (Count)
system.cpu.commit.committedInstType_0::FloatMemRead            0      0.00%    100.00% # Class of committed instruction (Count)
system.cpu.commit.committedInstType_0::FloatMemWrite            0      0.00%    100.00% # Class of committed instruction (Count)
system.cpu.commit.committedInstType_0::IprAccess            0      0.00%    100.00% # Class of committed instruction (Count)
system.cpu.commit.committedInstType_0::InstPrefetch            0      0.00%    100.00% # Class of committed instruction (Count)
system.cpu.commit.committedInstType_0::total      8388625                       # Class of committed instruction (Count)
system.cpu.commit.commitEligibleSamples       1048575                       # number cycles where commit BW limit reached (Cycle)
system.cpu.decode.idleCycles                   349554                       # Number of cycles decode is idle (Cycle)
system.cpu.decode.blockedCycles               1747928                       # Number of cycles decode is blocked (Cycle)
system.cpu.decode.runCycles                        70                       # Number of cycles decode is running (Cycle)
system.cpu.decode.unblockCycles               1048555                       # Number of cycles decode is unblocking (Cycle)
system.cpu.decode.squashCycles                      8                       # Number of cycles decode is squashing (Cycle)
system.cpu.decode.branchResolved              1048586                       # Number of times decode resolved a branch (Count)
system.cpu.decode.branchMispred                     1                       # Number of times decode detected a branch misprediction (Count)
system.cpu.decode.decodedInsts                8388903                       # Number of instructions handled by decode (Count)
system.cpu.decode.squashedInsts                    16                       # Number of squashed instructions handled by decode (Count)
system.cpu.fetch.icacheStallCycles                 41                       # Number of cycles fetch is stalled on an Icache miss (Cycle)
system.cpu.fetch.insts                        4194493                       # Number of instructions fetch has processed (Count)
system.cpu.fetch.branches                     1048629                       # Number of branches that fetch encountered (Count)
system.cpu.fetch.predictedBranches            1048600                       # Number of branches that fetch has predicted taken (Count)
system.cpu.fetch.cycles                       3146064                       # Number of cycles fetch has run and was not squashing or blocked (Cycle)
system.cpu.fetch.squashCycles                      20                       # Number of cycles fetch has spent squashing (Cycle)
system.cpu.fetch.cacheLines                        33                       # Number of cache lines fetched (Count)
system.cpu.fetch.nisnDist::samples            3146115                       # Number of instructions fetched each cycle (Total) (Count)
system.cpu.fetch.nisnDist::mean              2.666465                       # Number of instructions fetched each cycle (Total) (Count)
system.cpu.fetch.nisnDist::stdev             3.771152                       # Number of instructions fetched each cycle (Total) (Count)
system.cpu.fetch.nisnDist::underflows               0      0.00%      0.00% # Number of instructions fetched each cycle (Total) (Count)
system.cpu.fetch.nisnDist::0                  2097475     66.67%     66.67% # Number of instructions fetched each cycle (Total) (Count)
system.cpu.fetch.nisnDist::1                        6      0.00%     66.67% # Number of instructions fetched each cycle (Total) (Count)
system.cpu.fetch.nisnDist::2                        2      0.00%     66.67% # Number of instructions fetched each cycle (Total) (Count)
system.cpu.fetch.nisnDist::3                        3      0.00%     66.67% # Number of instructions fetched each cycle (Total) (Count)
system.cpu.fetch.nisnDist::4                        8      0.00%     66.67% # Number of instructions fetched each cycle (Total) (Count)
system.cpu.fetch.nisnDist::5                        3      0.00%     66.67% # Number of instructions fetched each cycle (Total) (Count)
system.cpu.fetch.nisnDist::6                        0      0.00%     66.67% # Number of instructions fetched each cycle (Total) (Count)
system.cpu.fetch.nisnDist::7                        5      0.00%     66.67% # Number of instructions fetched each cycle (Total) (Count)
system.cpu.fetch.nisnDist::8                  1048613     33.33%    100.00% # Number of instructions fetched each cycle (Total) (Count)
system.cpu.fetch.nisnDist::overflows                0      0.00%    100.00% # Number of instructions fetched each cycle (Total) (Count)
system.cpu.fetch.nisnDist::min_value                0                       # Number of instructions fetched each cycle (Total) (Count)
system.cpu.fetch.nisnDist::max_value                8                       # Number of instructions fetched each cycle (Total) (Count)
system.cpu.fetch.nisnDist::total              3146115                       # Number of instructions fetched each cycle (Total) (Count)
system.cpu.fetch.branchRate                  0.333309                       # Number of branch fetches per cycle (Ratio)
system.cpu.fetch.rate                        1.333229                       # Number of inst fetches per cycle ((Count/Cycle))
system.cpu.interrupts.clk_domain.clock          16000                       # Clock period in ticks (Tick)
system.cpu.lsq0.forwLoads                           5                       # Number of loads that had data forwarded from stores (Count)
system.cpu.lsq0.squashedLoads                      17                       # Number of loads squashed (Count)
[...]
system.mem_ctrl.rdPerTurnAround::stdev       0.318860                       # Reads before turning the bus around for writes (Count)
system.mem_ctrl.rdPerTurnAround::12                 1      0.00%      0.00% # Reads before turning the bus around for writes (Count)
system.mem_ctrl.rdPerTurnAround::13                 4      0.00%      0.00% # Reads before turning the bus around for writes (Count)
system.mem_ctrl.rdPerTurnAround::14               888      0.38%      0.38% # Reads before turning the bus around for writes (Count)
system.mem_ctrl.rdPerTurnAround::15             19471      8.37%      8.75% # Reads before turning the bus around for writes (Count)
system.mem_ctrl.rdPerTurnAround::16            210258     90.35%     99.10% # Reads before turning the bus around for writes (Count)
system.mem_ctrl.rdPerTurnAround::17              2057      0.88%     99.99% # Reads before turning the bus around for writes (Count)
system.mem_ctrl.rdPerTurnAround::18                26      0.01%    100.00% # Reads before turning the bus around for writes (Count)
system.mem_ctrl.rdPerTurnAround::total         232705                       # Reads before turning the bus around for writes (Count)
system.mem_ctrl.wrPerTurnAround::samples       232705                       # Writes before turning the bus around for reads (Count)
system.mem_ctrl.wrPerTurnAround::mean       16.009712                       # Writes before turning the bus around for reads (Count)
system.mem_ctrl.wrPerTurnAround::gmean      16.009387                       # Writes before turning the bus around for reads (Count)
system.mem_ctrl.wrPerTurnAround::stdev       0.104600                       # Writes before turning the bus around for reads (Count)
system.mem_ctrl.wrPerTurnAround::16            230573     99.08%     99.08% # Writes before turning the bus around for reads (Count)
system.mem_ctrl.wrPerTurnAround::17              2030      0.87%     99.96% # Writes before turning the bus around for reads (Count)
system.mem_ctrl.wrPerTurnAround::18                76      0.03%     99.99% # Writes before turning the bus around for reads (Count)
system.mem_ctrl.wrPerTurnAround::19                26      0.01%    100.00% # Writes before turning the bus around for reads (Count)
system.mem_ctrl.wrPerTurnAround::total         232705                       # Writes before turning the bus around for reads (Count)
system.mem_ctrl.bytesReadWrQ                  1370496                       # Total number of bytes read from write queue (Byte)
system.mem_ctrl.bytesReadSys                238435136                       # Total read bytes from the system interface side (Byte)
system.mem_ctrl.bytesWrittenSys             238435136                       # Total written bytes from the system interface side (Byte)
system.mem_ctrl.avgRdBWSys               790937421.07755351                       # Average system read bandwidth in Byte/s ((Byte/Second))
system.mem_ctrl.avgWrBWSys               790937421.07755351                       # Average system write bandwidth in Byte/s ((Byte/Second))
system.mem_ctrl.totGap                   301458958000                       # Total gap between requests (Tick)
system.mem_ctrl.avgGap                       40458.33                       # Average gap between requests ((Tick/Count))
system.mem_ctrl.requestorReadBytes::caches.controllers1    237064640                       # Per-requestor bytes read from memory (Byte)
system.mem_ctrl.requestorWriteBytes::caches.controllers1    238434560                       # Per-requestor bytes write to memory (Byte)
system.mem_ctrl.requestorReadRate::caches.controllers1 786391209.516531229019                       # Per-requestor bytes read from memory rate ((Byte/Second))
system.mem_ctrl.requestorWriteRate::caches.controllers1 790935510.369416356087                       # Per-requestor bytes write to memory rate ((Byte/Second))
system.mem_ctrl.requestorReadAccesses::caches.controllers1      3725549                       # Per-requestor read serviced memory accesses (Count)
system.mem_ctrl.requestorWriteAccesses::caches.controllers1      3725549                       # Per-requestor write serviced memory accesses (Count)
system.mem_ctrl.requestorReadTotalLat::caches.controllers1 149460510250                       # Per-requestor read total memory access latency (Tick)
system.mem_ctrl.requestorWriteTotalLat::caches.controllers1 7467977223000                       # Per-requestor write total memory access latency (Tick)
system.mem_ctrl.requestorReadAvgLat::caches.controllers1     40117.71                       # Per-requestor read average memory access latency ((Tick/Count))
system.mem_ctrl.requestorWriteAvgLat::caches.controllers1   2004530.67                       # Per-requestor write average memory access latency ((Tick/Count))
system.mem_ctrl.dram.bytesRead::caches.controllers1    238435072                       # Number of bytes read from this memory (Byte)
system.mem_ctrl.dram.bytesRead::total       238435072                       # Number of bytes read from this memory (Byte)
system.mem_ctrl.dram.bytesWritten::caches.controllers1    238435136                       # Number of bytes written to this memory (Byte)
system.mem_ctrl.dram.bytesWritten::total    238435136                       # Number of bytes written to this memory (Byte)
system.mem_ctrl.dram.numReads::caches.controllers1      3725548                       # Number of read requests responded to by this memory (Count)
system.mem_ctrl.dram.numReads::total          3725548                       # Number of read requests responded to by this memory (Count)
system.mem_ctrl.dram.numWrites::caches.controllers1      3725549                       # Number of write requests responded to by this memory (Count)
system.mem_ctrl.dram.numWrites::total         3725549                       # Number of write requests responded to by this memory (Count)
system.mem_ctrl.dram.bwRead::caches.controllers1    790937209                       # Total read bandwidth from this memory ((Byte/Second))
system.mem_ctrl.dram.bwRead::total          790937209                       # Total read bandwidth from this memory ((Byte/Second))
system.mem_ctrl.dram.bwWrite::caches.controllers1    790937421                       # Write bandwidth from this memory ((Byte/Second))
system.mem_ctrl.dram.bwWrite::total         790937421                       # Write bandwidth from this memory ((Byte/Second))
system.mem_ctrl.dram.bwTotal::caches.controllers1   1581874630                       # Total bandwidth to/from this memory ((Byte/Second))
system.mem_ctrl.dram.bwTotal::total        1581874630                       # Total bandwidth to/from this memory ((Byte/Second))
system.mem_ctrl.dram.readBursts               3704135                       # Number of DRAM read bursts (Count)
system.mem_ctrl.dram.writeBursts              3725540                       # Number of DRAM write bursts (Count)
system.mem_ctrl.dram.perBankRdBursts::0        235092                       # Per bank write bursts (Count)
system.mem_ctrl.dram.perBankRdBursts::1        230710                       # Per bank write bursts (Count)
system.mem_ctrl.dram.perBankRdBursts::2        232752                       # Per bank write bursts (Count)
system.mem_ctrl.dram.perBankRdBursts::3        231907                       # Per bank write bursts (Count)
system.mem_ctrl.dram.perBankRdBursts::4        229090                       # Per bank write bursts (Count)
system.mem_ctrl.dram.perBankRdBursts::5        229700                       # Per bank write bursts (Count)
system.mem_ctrl.dram.perBankRdBursts::6        231197                       # Per bank write bursts (Count)
system.mem_ctrl.dram.perBankRdBursts::7        230457                       # Per bank write bursts (Count)
system.mem_ctrl.dram.perBankRdBursts::8        231184                       # Per bank write bursts (Count)
system.mem_ctrl.dram.perBankRdBursts::9        288175                       # Per bank write bursts (Count)
system.mem_ctrl.dram.perBankRdBursts::10       175910                       # Per bank write bursts (Count)
system.mem_ctrl.dram.perBankRdBursts::11       231933                       # Per bank write bursts (Count)
system.mem_ctrl.dram.perBankRdBursts::12       227608                       # Per bank write bursts (Count)
system.mem_ctrl.dram.perBankRdBursts::13       234251                       # Per bank write bursts (Count)
system.mem_ctrl.dram.perBankRdBursts::14       232039                       # Per bank write bursts (Count)
system.mem_ctrl.dram.perBankRdBursts::15       232130                       # Per bank write bursts (Count)
system.mem_ctrl.dram.perBankWrBursts::0        236779                       # Per bank write bursts (Count)
system.mem_ctrl.dram.perBankWrBursts::1        232126                       # Per bank write bursts (Count)
system.mem_ctrl.dram.perBankWrBursts::2        234023                       # Per bank write bursts (Count)
system.mem_ctrl.dram.perBankWrBursts::3        233313                       # Per bank write bursts (Count)
system.mem_ctrl.dram.perBankWrBursts::4        230480                       # Per bank write bursts (Count)
system.mem_ctrl.dram.perBankWrBursts::5        231137                       # Per bank write bursts (Count)
system.mem_ctrl.dram.perBankWrBursts::6        232285                       # Per bank write bursts (Count)
system.mem_ctrl.dram.perBankWrBursts::7        231756                       # Per bank write bursts (Count)
system.mem_ctrl.dram.perBankWrBursts::8        232275                       # Per bank write bursts (Count)
system.mem_ctrl.dram.perBankWrBursts::9        290335                       # Per bank write bursts (Count)
system.mem_ctrl.dram.perBankWrBursts::10       176721                       # Per bank write bursts (Count)
system.mem_ctrl.dram.perBankWrBursts::11       232924                       # Per bank write bursts (Count)
system.mem_ctrl.dram.perBankWrBursts::12       228382                       # Per bank write bursts (Count)
system.mem_ctrl.dram.perBankWrBursts::13       235814                       # Per bank write bursts (Count)
system.mem_ctrl.dram.perBankWrBursts::14       234166                       # Per bank write bursts (Count)
system.mem_ctrl.dram.perBankWrBursts::15       233024                       # Per bank write bursts (Count)
system.mem_ctrl.dram.totQLat              80007979000                       # Total ticks spent queuing (Tick)
system.mem_ctrl.dram.totBusLat            18520675000                       # Total ticks spent in databus transfers (Tick)
system.mem_ctrl.dram.totMemAccLat        149460510250                       # Total ticks spent from burst creation until serviced by the DRAM (Tick)
system.mem_ctrl.dram.avgQLat                 21599.64                       # Average queueing delay per DRAM burst ((Tick/Count))
system.mem_ctrl.dram.avgBusLat                5000.00                       # Average bus latency per DRAM burst ((Tick/Count))
system.mem_ctrl.dram.avgMemAccLat            40349.64                       # Average memory access latency per DRAM burst ((Tick/Count))
system.mem_ctrl.dram.readRowHits              1340970                       # Number of row buffer hits during reads (Count)
system.mem_ctrl.dram.writeRowHits             2846864                       # Number of row buffer hits during writes (Count)
system.mem_ctrl.dram.readRowHitRate             36.20                       # Row buffer hit rate for reads (Ratio)
system.mem_ctrl.dram.writeRowHitRate            76.41                       # Row buffer hit rate for writes (Ratio)
system.mem_ctrl.dram.bytesPerActivate::samples      3241843                       # Bytes accessed per row activation (Byte)
system.mem_ctrl.dram.bytesPerActivate::mean   146.675678                       # Bytes accessed per row activation (Byte)
system.mem_ctrl.dram.bytesPerActivate::gmean   121.267211                       # Bytes accessed per row activation (Byte)
system.mem_ctrl.dram.bytesPerActivate::stdev    97.776618                       # Bytes accessed per row activation (Byte)
system.mem_ctrl.dram.bytesPerActivate::0-127      1300649     40.12%     40.12% # Bytes accessed per row activation (Byte)
system.mem_ctrl.dram.bytesPerActivate::128-255      1353901     41.76%     81.88% # Bytes accessed per row activation (Byte)
system.mem_ctrl.dram.bytesPerActivate::256-383       446982     13.79%     95.67% # Bytes accessed per row activation (Byte)
system.mem_ctrl.dram.bytesPerActivate::384-511       111659      3.44%     99.12% # Bytes accessed per row activation (Byte)
system.mem_ctrl.dram.bytesPerActivate::512-639        23001      0.71%     99.83% # Bytes accessed per row activation (Byte)
system.mem_ctrl.dram.bytesPerActivate::640-767         4572      0.14%     99.97% # Bytes accessed per row activation (Byte)
system.mem_ctrl.dram.bytesPerActivate::768-895          919      0.03%    100.00% # Bytes accessed per row activation (Byte)
system.mem_ctrl.dram.bytesPerActivate::896-1023           82      0.00%    100.00% # Bytes accessed per row activation (Byte)
system.mem_ctrl.dram.bytesPerActivate::1024-1151           78      0.00%    100.00% # Bytes accessed per row activation (Byte)
system.mem_ctrl.dram.bytesPerActivate::total      3241843                       # Bytes accessed per row activation (Byte)
system.mem_ctrl.dram.bytesRead              237064640                       # Total number of bytes read from DRAM (Byte)
system.mem_ctrl.dram.bytesWritten           238434560                       # Total number of bytes written to DRAM (Byte)
system.mem_ctrl.dram.avgRdBW               786.391210                       # Average DRAM read bandwidth in MiBytes/s ((Byte/Second))
system.mem_ctrl.dram.avgWrBW               790.935510                       # Average DRAM write bandwidth in MiBytes/s ((Byte/Second))
system.mem_ctrl.dram.peakBW                  12800.00                       # Theoretical peak bandwidth in MiByte/s ((Byte/Second))
system.mem_ctrl.dram.busUtil                    12.32                       # Data bus utilization in percentage (Ratio)
system.mem_ctrl.dram.busUtilRead                 6.14                       # Data bus utilization in percentage for reads (Ratio)
system.mem_ctrl.dram.busUtilWrite                6.18                       # Data bus utilization in percentage for writes (Ratio)
system.mem_ctrl.dram.pageHitRate                56.37                       # Row buffer hit rate, read and write combined (Ratio)
system.mem_ctrl.dram.power_state.pwrStateResidencyTicks::UNDEFINED 308715342000                       # Cumulative time (in ticks) in various power states (Tick)
system.mem_ctrl.dram.rank0.actEnergy      11430404580                       # Energy for activate commands per rank (pJ) (Joule)
system.mem_ctrl.dram.rank0.preEnergy       6075385140                       # Energy for precharge commands per rank (pJ) (Joule)
system.mem_ctrl.dram.rank0.readEnergy     13215704460                       # Energy for read commands per rank (pJ) (Joule)
system.mem_ctrl.dram.rank0.writeEnergy     9719238060                       # Energy for write commands per rank (pJ) (Joule)
system.mem_ctrl.dram.rank0.refreshEnergy 23797016880.000004                       # Energy for refresh commands per rank (pJ) (Joule)
system.mem_ctrl.dram.rank0.actBackEnergy 135733436520                       # Energy for active background per rank (pJ) (Joule)
system.mem_ctrl.dram.rank0.preBackEnergy   1459423200                       # Energy for precharge background per rank (pJ) (Joule)
system.mem_ctrl.dram.rank0.actPowerDownEnergy            0                       # Energy for active power-down per rank (pJ) (Joule)
system.mem_ctrl.dram.rank0.prePowerDownEnergy            0                       # Energy for precharge power-down per rank (pJ) (Joule)
system.mem_ctrl.dram.rank0.selfRefreshEnergy            0                       # Energy for self refresh per rank (pJ) (Joule)
system.mem_ctrl.dram.rank0.totalEnergy   201430608840                       # Total energy per rank (pJ) (Joule)
system.mem_ctrl.dram.rank0.averagePower    668.185943                       # Core power per rank (mW) (Watt)
system.mem_ctrl.dram.rank0.totalIdleTime            0                       # Total Idle time Per DRAM Rank (Tick)
system.mem_ctrl.dram.rank0.pwrStateTime::IDLE   2693675500                       # Time in different power states (Tick)
system.mem_ctrl.dram.rank0.pwrStateTime::REF  10066420000                       # Time in different power states (Tick)
system.mem_ctrl.dram.rank0.pwrStateTime::SREF            0                       # Time in different power states (Tick)
system.mem_ctrl.dram.rank0.pwrStateTime::PRE_PDN            0                       # Time in different power states (Tick)
system.mem_ctrl.dram.rank0.pwrStateTime::ACT 288701531500                       # Time in different power states (Tick)
system.mem_ctrl.dram.rank0.pwrStateTime::ACT_PDN            0                       # Time in different power states (Tick)
system.mem_ctrl.dram.rank1.actEnergy      11716818540                       # Energy for activate commands per rank (pJ) (Joule)
system.mem_ctrl.dram.rank1.preEnergy       6227621565                       # Energy for precharge commands per rank (pJ) (Joule)
system.mem_ctrl.dram.rank1.readEnergy     13232283540                       # Energy for read commands per rank (pJ) (Joule)
system.mem_ctrl.dram.rank1.writeEnergy     9728414820                       # Energy for write commands per rank (pJ) (Joule)
system.mem_ctrl.dram.rank1.refreshEnergy 23797016880.000004                       # Energy for refresh commands per rank (pJ) (Joule)
system.mem_ctrl.dram.rank1.actBackEnergy 135790177740                       # Energy for active background per rank (pJ) (Joule)
system.mem_ctrl.dram.rank1.preBackEnergy   1411669920                       # Energy for precharge background per rank (pJ) (Joule)
system.mem_ctrl.dram.rank1.actPowerDownEnergy            0                       # Energy for active power-down per rank (pJ) (Joule)
system.mem_ctrl.dram.rank1.prePowerDownEnergy            0                       # Energy for precharge power-down per rank (pJ) (Joule)
system.mem_ctrl.dram.rank1.selfRefreshEnergy            0                       # Energy for self refresh per rank (pJ) (Joule)
system.mem_ctrl.dram.rank1.totalEnergy   201904003005                       # Total energy per rank (pJ) (Joule)
system.mem_ctrl.dram.rank1.averagePower    669.756287                       # Core power per rank (mW) (Watt)
system.mem_ctrl.dram.rank1.totalIdleTime            0                       # Total Idle time Per DRAM Rank (Tick)
system.mem_ctrl.dram.rank1.pwrStateTime::IDLE   2560633750                       # Time in different power states (Tick)
system.mem_ctrl.dram.rank1.pwrStateTime::REF  10066420000                       # Time in different power states (Tick)
system.mem_ctrl.dram.rank1.pwrStateTime::SREF            0                       # Time in different power states (Tick)
system.mem_ctrl.dram.rank1.pwrStateTime::PRE_PDN            0                       # Time in different power states (Tick)
system.mem_ctrl.dram.rank1.pwrStateTime::ACT 288834647250                       # Time in different power states (Tick)
system.mem_ctrl.dram.rank1.pwrStateTime::ACT_PDN            0                       # Time in different power states (Tick)
system.mem_ctrl.power_state.pwrStateResidencyTicks::UNDEFINED 308715342000                       # Cumulative time (in ticks) in various power states (Tick)
system.workload.inst.arm                            0                       # number of arm instructions executed (Count)
system.workload.inst.quiesce                        0                       # number of quiesce instructions executed (Count)

---------- End Simulation Statistics   ----------
