
---------- Begin Simulation Statistics ----------
simSeconds                                   0.074034                       # Number of seconds simulated (Second)
simTicks                                  74033848000                       # Number of ticks simulated (Tick)
finalTick                                 74033848000                       # Number of ticks from beginning of simulation (restored from checkpoints and never reset) (Tick)
simFreq                                  1000000000000                       # The number of ticks per simulated second ((Tick/Second))
hostSeconds                                    216.36                       # Real time elapsed on the host (Second)
hostTickRate                                342180791                       # The number of ticks simulated per host second (ticks/s) ((Tick/Second))
hostMemory                                    9639680                       # Number of bytes of host memory used (Byte)
simInsts                                     46698355                       # Number of instructions simulated (Count)
simOps                                       83201955                       # Number of ops (including micro ops) simulated (Count)
hostInstRate                                   215837                       # Simulator instruction rate (inst/s) ((Count/Second))
hostOpRate                                     384555                       # Simulator op (including micro ops) rate (op/s) ((Count/Second))
system.caches.delayHistogram::bucket_size            8                       # delay histogram for all message (Unspecified)
system.caches.delayHistogram::max_bucket           79                       # delay histogram for all message (Unspecified)
system.caches.delayHistogram::samples         2014978                       # delay histogram for all message (Unspecified)
system.caches.delayHistogram::mean           0.391246                       # delay histogram for all message (Unspecified)
system.caches.delayHistogram::stdev          1.507140                       # delay histogram for all message (Unspecified)
system.caches.delayHistogram             |     2011185     99.81%     99.81% |        2682      0.13%     99.94% |         748      0.04%     99.98% |         277      0.01%    100.00% |          61      0.00%    100.00% |          19      0.00%    100.00% |           5      0.00%    100.00% |           1      0.00%    100.00% |           0      0.00%    100.00% |           0      0.00%    100.00% # delay histogram for all message (Unspecified)
system.caches.delayHistogram::total           2014978                       # delay histogram for all message (Unspecified)
system.caches.m_outstandReqHistSeqr::bucket_size            2                       (Unspecified)
system.caches.m_outstandReqHistSeqr::max_bucket           19                       (Unspecified)
system.caches.m_outstandReqHistSeqr::samples     27820873                       (Unspecified)
system.caches.m_outstandReqHistSeqr::mean     1.662044                       (Unspecified)
system.caches.m_outstandReqHistSeqr::gmean     1.468554                       (Unspecified)
system.caches.m_outstandReqHistSeqr::stdev     0.968543                       (Unspecified)
system.caches.m_outstandReqHistSeqr      |    15514821     55.77%     55.77% |    10971921     39.44%     95.20% |     1205263      4.33%     99.54% |       79322      0.29%     99.82% |       22633      0.08%     99.90% |       15323      0.06%     99.96% |        6892      0.02%     99.98% |        3061      0.01%     99.99% |        1637      0.01%    100.00% |           0      0.00%    100.00% (Unspecified)
system.caches.m_outstandReqHistSeqr::total     27820873                       (Unspecified)
system.caches.m_latencyHistSeqr::bucket_size           64                       (Unspecified)
system.caches.m_latencyHistSeqr::max_bucket          639                       (Unspecified)
system.caches.m_latencyHistSeqr::samples     28124305                       (Unspecified)
system.caches.m_latencyHistSeqr::mean        2.719275                       (Unspecified)
system.caches.m_latencyHistSeqr::gmean       1.161475                       (Unspecified)
system.caches.m_latencyHistSeqr::stdev      10.950580                       (Unspecified)
system.caches.m_latencyHistSeqr          |    27978817     99.48%     99.48% |      103075      0.37%     99.85% |       30422      0.11%     99.96% |        7874      0.03%     99.99% |        2287      0.01%     99.99% |        1271      0.00%    100.00% |         284      0.00%    100.00% |         222      0.00%    100.00% |          52      0.00%    100.00% |           1      0.00%    100.00% (Unspecified)
system.caches.m_latencyHistSeqr::total       28124305                       (Unspecified)
system.caches.m_hitLatencyHistSeqr::bucket_size           64                       (Unspecified)
system.caches.m_hitLatencyHistSeqr::max_bucket          639                       (Unspecified)
system.caches.m_hitLatencyHistSeqr::samples     27116800                       (Unspecified)
system.caches.m_hitLatencyHistSeqr::mean     1.083556                       (Unspecified)
system.caches.m_hitLatencyHistSeqr::gmean     1.018339                       (Unspecified)
system.caches.m_hitLatencyHistSeqr::stdev     1.534692                       (Unspecified)
system.caches.m_hitLatencyHistSeqr       |    27115042     99.99%     99.99% |        1274      0.00%    100.00% |         415      0.00%    100.00% |          25      0.00%    100.00% |          28      0.00%    100.00% |           6      0.00%    100.00% |           5      0.00%    100.00% |           5      0.00%    100.00% |           0      0.00%    100.00% |           0      0.00%    100.00% (Unspecified)
system.caches.m_hitLatencyHistSeqr::total     27116800                       (Unspecified)
system.caches.m_missLatencyHistSeqr::bucket_size           64                       (Unspecified)
system.caches.m_missLatencyHistSeqr::max_bucket          639                       (Unspecified)
system.caches.m_missLatencyHistSeqr::samples      1007505                       (Unspecified)
system.caches.m_missLatencyHistSeqr::mean    46.744331                       (Unspecified)
system.caches.m_missLatencyHistSeqr::gmean    40.022935                       (Unspecified)
system.caches.m_missLatencyHistSeqr::stdev    35.690340                       (Unspecified)
system.caches.m_missLatencyHistSeqr      |      863775     85.73%     85.73% |      101801     10.10%     95.84% |       30007      2.98%     98.82% |        7849      0.78%     99.60% |        2259      0.22%     99.82% |        1265      0.13%     99.95% |         279      0.03%     99.97% |         217      0.02%     99.99% |          52      0.01%    100.00% |           1      0.00%    100.00% (Unspecified)
system.caches.m_missLatencyHistSeqr::total      1007505                       (Unspecified)
system.caches.delayVCHist.vnet_1::bucket_size            4                       # delay histogram for vnet_1 (Unspecified)
system.caches.delayVCHist.vnet_1::max_bucket           39                       # delay histogram for vnet_1 (Unspecified)
system.caches.delayVCHist.vnet_1::samples      1007505                       # delay histogram for vnet_1 (Unspecified)
system.caches.delayVCHist.vnet_1::mean       0.026350                       # delay histogram for vnet_1 (Unspecified)
system.caches.delayVCHist.vnet_1::stdev      0.392935                       # delay histogram for vnet_1 (Unspecified)
system.caches.delayVCHist.vnet_1         |     1003310     99.58%     99.58% |        3479      0.35%     99.93% |         687      0.07%    100.00% |          21      0.00%    100.00% |           7      0.00%    100.00% |           1      0.00%    100.00% |           0      0.00%    100.00% |           0      0.00%    100.00% |           0      0.00%    100.00% |           0      0.00%    100.00% # delay histogram for vnet_1 (Unspecified)
system.caches.delayVCHist.vnet_1::total       1007505                       # delay histogram for vnet_1 (Unspecified)
system.caches.delayVCHist.vnet_2::bucket_size            8                       # delay histogram for vnet_2 (Unspecified)
system.caches.delayVCHist.vnet_2::max_bucket           79                       # delay histogram for vnet_2 (Unspecified)
system.caches.delayVCHist.vnet_2::samples      1007473                       # delay histogram for vnet_2 (Unspecified)
system.caches.delayVCHist.vnet_2::mean       0.756153                       # delay histogram for vnet_2 (Unspecified)
system.caches.delayVCHist.vnet_2::stdev      2.030345                       # delay histogram for vnet_2 (Unspecified)
system.caches.delayVCHist.vnet_2         |     1004396     99.69%     99.69% |        1974      0.20%     99.89% |         740      0.07%     99.96% |         277      0.03%     99.99% |          61      0.01%    100.00% |          19      0.00%    100.00% |           5      0.00%    100.00% |           1      0.00%    100.00% |           0      0.00%    100.00% |           0      0.00%    100.00% # delay histogram for vnet_2 (Unspecified)
system.caches.delayVCHist.vnet_2::total       1007473                       # delay histogram for vnet_2 (Unspecified)
system.caches.L1Cache_Controller.Load         8872453      0.00%      0.00% (Unspecified)
system.caches.L1Cache_Controller.Ifetch       8289390      0.00%      0.00% (Unspecified)
system.caches.L1Cache_Controller.Store       10962463      0.00%      0.00% (Unspecified)
system.caches.L1Cache_Controller.Data         1007505      0.00%      0.00% (Unspecified)
system.caches.L1Cache_Controller.Replacement      1007474      0.00%      0.00% (Unspecified)
system.caches.L1Cache_Controller.Writeback_Ack      1007473      0.00%      0.00% (Unspecified)
system.caches.L1Cache_Controller.I.Load        367699      0.00%      0.00% (Unspecified)
system.caches.L1Cache_Controller.I.Ifetch       502165      0.00%      0.00% (Unspecified)
system.caches.L1Cache_Controller.I.Store       137642      0.00%      0.00% (Unspecified)
system.caches.L1Cache_Controller.M.Load       8504754      0.00%      0.00% (Unspecified)
system.caches.L1Cache_Controller.M.Ifetch      7787225      0.00%      0.00% (Unspecified)
system.caches.L1Cache_Controller.M.Store     10824821      0.00%      0.00% (Unspecified)
system.caches.L1Cache_Controller.M.Replacement      1007474      0.00%      0.00% (Unspecified)
system.caches.L1Cache_Controller.MI.Writeback_Ack      1007473      0.00%      0.00% (Unspecified)
system.caches.L1Cache_Controller.IS.Data       869863      0.00%      0.00% (Unspecified)
system.caches.L1Cache_Controller.IM.Data       137642      0.00%      0.00% (Unspecified)
system.caches.Directory_Controller.GETX       1007505      0.00%      0.00% (Unspecified)
system.caches.Directory_Controller.PUTX       1007473      0.00%      0.00% (Unspecified)
system.caches.Directory_Controller.Memory_Data      1007505      0.00%      0.00% (Unspecified)
system.caches.Directory_Controller.Memory_Ack      1007473      0.00%      0.00% (Unspecified)
system.caches.Directory_Controller.I.GETX      1007505      0.00%      0.00% (Unspecified)
system.caches.Directory_Controller.M.PUTX      1007473      0.00%      0.00% (Unspecified)
system.caches.Directory_Controller.IM.Memory_Data      1007505      0.00%      0.00% (Unspecified)
system.caches.Directory_Controller.MI.Memory_Ack      1007473      0.00%      0.00% (Unspecified)
system.caches.MachineType.Directory.miss_mach_latency_hist_seqr::bucket_size           64                       (Unspecified)
system.caches.MachineType.Directory.miss_mach_latency_hist_seqr::max_bucket          639                       (Unspecified)
system.caches.MachineType.Directory.miss_mach_latency_hist_seqr::samples      1007505                       (Unspecified)
system.caches.MachineType.Directory.miss_mach_latency_hist_seqr::mean    46.744331                       (Unspecified)
system.caches.MachineType.Directory.miss_mach_latency_hist_seqr::gmean    40.022935                       (Unspecified)
system.caches.MachineType.Directory.miss_mach_latency_hist_seqr::stdev    35.690340                       (Unspecified)
system.caches.MachineType.Directory.miss_mach_latency_hist_seqr |      863775     85.73%     85.73% |      101801     10.10%     95.84% |       30007      2.98%     98.82% |        7849      0.78%     99.60% |        2259      0.22%     99.82% |        1265      0.13%     99.95% |         279      0.03%     99.97% |         217      0.02%     99.99% |          52      0.01%    100.00% |           1      0.00%    100.00% (Unspecified)
system.caches.MachineType.Directory.miss_mach_latency_hist_seqr::total      1007505                       (Unspecified)
system.caches.MachineType.Directory.miss_latency_hist_seqr.issue_to_initial_request::bucket_size            1                       (Unspecified)
system.caches.MachineType.Directory.miss_latency_hist_seqr.issue_to_initial_request::max_bucket            9                       (Unspecified)
system.caches.MachineType.Directory.miss_latency_hist_seqr.issue_to_initial_request::samples            1                       (Unspecified)
system.caches.MachineType.Directory.miss_latency_hist_seqr.issue_to_initial_request::stdev          nan                       (Unspecified)
system.caches.MachineType.Directory.miss_latency_hist_seqr.issue_to_initial_request |           1    100.00%    100.00% |           0      0.00%    100.00% |           0      0.00%    100.00% |           0      0.00%    100.00% |           0      0.00%    100.00% |           0      0.00%    100.00% |           0      0.00%    100.00% |           0      0.00%    100.00% |           0      0.00%    100.00% |           0      0.00%    100.00% (Unspecified)
system.caches.MachineType.Directory.miss_latency_hist_seqr.issue_to_initial_request::total            1                       (Unspecified)
system.caches.MachineType.Directory.miss_latency_hist_seqr.initial_to_forward::bucket_size            1                       (Unspecified)
system.caches.MachineType.Directory.miss_latency_hist_seqr.initial_to_forward::max_bucket            9                       (Unspecified)
system.caches.MachineType.Directory.miss_latency_hist_seqr.initial_to_forward::samples            1                       (Unspecified)
system.caches.MachineType.Directory.miss_latency_hist_seqr.initial_to_forward::stdev          nan                       (Unspecified)
system.caches.MachineType.Directory.miss_latency_hist_seqr.initial_to_forward |           1    100.00%    100.00% |           0      0.00%    100.00% |           0      0.00%    100.00% |           0      0.00%    100.00% |           0      0.00%    100.00% |           0      0.00%    100.00% |           0      0.00%    100.00% |           0      0.00%    100.00% |           0      0.00%    100.00% |           0      0.00%    100.00% (Unspecified)
system.caches.MachineType.Directory.miss_latency_hist_seqr.initial_to_forward::total            1                       (Unspecified)
system.caches.MachineType.Directory.miss_latency_hist_seqr.forward_to_first_response::bucket_size            1                       (Unspecified)
system.caches.MachineType.Directory.miss_latency_hist_seqr.forward_to_first_response::max_bucket            9                       (Unspecified)
system.caches.MachineType.Directory.miss_latency_hist_seqr.forward_to_first_response::samples            1                       (Unspecified)
system.caches.MachineType.Directory.miss_latency_hist_seqr.forward_to_first_response::stdev          nan                       (Unspecified)
system.caches.MachineType.Directory.miss_latency_hist_seqr.forward_to_first_response |           1    100.00%    100.00% |           0      0.00%    100.00% |           0      0.00%    100.00% |           0      0.00%    100.00% |           0      0.00%    100.00% |           0      0.00%    100.00% |           0      0.00%    100.00% |           0      0.00%    100.00% |           0      0.00%    100.00% |           0      0.00%    100.00% (Unspecified)
system.caches.MachineType.Directory.miss_latency_hist_seqr.forward_to_first_response::total            1                       (Unspecified)
system.caches.MachineType.Directory.miss_latency_hist_seqr.first_response_to_completion::bucket_size            8                       (Unspecified)
system.caches.MachineType.Directory.miss_latency_hist_seqr.first_response_to_completion::max_bucket           79                       (Unspecified)
system.caches.MachineType.Directory.miss_latency_hist_seqr.first_response_to_completion::samples            1                       (Unspecified)
system.caches.MachineType.Directory.miss_latency_hist_seqr.first_response_to_completion::mean           73                       (Unspecified)
system.caches.MachineType.Directory.miss_latency_hist_seqr.first_response_to_completion::gmean    73.000000                       (Unspecified)
system.caches.MachineType.Directory.miss_latency_hist_seqr.first_response_to_completion::stdev          nan                       (Unspecified)
system.caches.MachineType.Directory.miss_latency_hist_seqr.first_response_to_completion |           0      0.00%      0.00% |           0      0.00%      0.00% |           0      0.00%      0.00% |           0      0.00%      0.00% |           0      0.00%      0.00% |           0      0.00%      0.00% |           0      0.00%      0.00% |           0      0.00%      0.00% |           0      0.00%      0.00% |           1    100.00%    100.00% (Unspecified)
system.caches.MachineType.Directory.miss_latency_hist_seqr.first_response_to_completion::total            1                       (Unspecified)
system.caches.MachineType.Directory.incomplete_times_seqr      1007504                       (Unspecified)
system.caches.RequestType.LD.latency_hist_seqr::bucket_size           64                       (Unspecified)
system.caches.RequestType.LD.latency_hist_seqr::max_bucket          639                       (Unspecified)
system.caches.RequestType.LD.latency_hist_seqr::samples      8872453                       (Unspecified)
system.caches.RequestType.LD.latency_hist_seqr::mean     3.442197                       (Unspecified)
system.caches.RequestType.LD.latency_hist_seqr::gmean     1.190892                       (Unspecified)
system.caches.RequestType.LD.latency_hist_seqr::stdev    14.268797                       (Unspecified)
system.caches.RequestType.LD.latency_hist_seqr |     8791387     99.09%     99.09% |       56324      0.63%     99.72% |       16376      0.18%     99.91% |        5921      0.07%     99.97% |        1381      0.02%     99.99% |         718      0.01%    100.00% |         162      0.00%    100.00% |         138      0.00%    100.00% |          45      0.00%    100.00% |           1      0.00%    100.00% (Unspecified)
system.caches.RequestType.LD.latency_hist_seqr::total      8872453                       (Unspecified)
system.caches.RequestType.LD.hit_latency_hist_seqr::bucket_size           64                       (Unspecified)
system.caches.RequestType.LD.hit_latency_hist_seqr::max_bucket          639                       (Unspecified)
system.caches.RequestType.LD.hit_latency_hist_seqr::samples      8504754                       (Unspecified)
system.caches.RequestType.LD.hit_latency_hist_seqr::mean     1.100582                       (Unspecified)
system.caches.RequestType.LD.hit_latency_hist_seqr::gmean     1.014076                       (Unspecified)
system.caches.RequestType.LD.hit_latency_hist_seqr::stdev     1.880239                       (Unspecified)
system.caches.RequestType.LD.hit_latency_hist_seqr |     8503828     99.99%     99.99% |         681      0.01%    100.00% |         206      0.00%    100.00% |          13      0.00%    100.00% |          18      0.00%    100.00% |           2      0.00%    100.00% |           3      0.00%    100.00% |           3      0.00%    100.00% |           0      0.00%    100.00% |           0      0.00%    100.00% (Unspecified)
system.caches.RequestType.LD.hit_latency_hist_seqr::total      8504754                       (Unspecified)
system.caches.RequestType.LD.miss_latency_hist_seqr::bucket_size           64                       (Unspecified)
system.caches.RequestType.LD.miss_latency_hist_seqr::max_bucket          639                       (Unspecified)
system.caches.RequestType.LD.miss_latency_hist_seqr::samples       367699                       (Unspecified)
system.caches.RequestType.LD.miss_latency_hist_seqr::mean    57.602966                       (Unspecified)
system.caches.RequestType.LD.miss_latency_hist_seqr::gmean    49.019764                       (Unspecified)
system.caches.RequestType.LD.miss_latency_hist_seqr::stdev    42.080711                       (Unspecified)
system.caches.RequestType.LD.miss_latency_hist_seqr |      287559     78.20%     78.20% |       55643     15.13%     93.34% |       16170      4.40%     97.74% |        5908      1.61%     99.34% |        1363      0.37%     99.71% |         716      0.19%     99.91% |         159      0.04%     99.95% |         135      0.04%     99.99% |          45      0.01%    100.00% |           1      0.00%    100.00% (Unspecified)
system.caches.RequestType.LD.miss_latency_hist_seqr::total       367699                       (Unspecified)
system.caches.RequestType.ST.latency_hist_seqr::bucket_size           64                       (Unspecified)
system.caches.RequestType.ST.latency_hist_seqr::max_bucket          639                       (Unspecified)
system.caches.RequestType.ST.latency_hist_seqr::samples     10485017                       (Unspecified)
system.caches.RequestType.ST.latency_hist_seqr::mean     1.680003                       (Unspecified)
system.caches.RequestType.ST.latency_hist_seqr::gmean     1.075540                       (Unspecified)
system.caches.RequestType.ST.latency_hist_seqr::stdev     6.499248                       (Unspecified)
system.caches.RequestType.ST.latency_hist_seqr |    10455102     99.71%     99.71% |       25321      0.24%     99.96% |        3561      0.03%     99.99% |         534      0.01%    100.00% |         307      0.00%    100.00% |         143      0.00%    100.00% |          34      0.00%    100.00% |          15      0.00%    100.00% |           0      0.00%    100.00% |           0      0.00%    100.00% (Unspecified)
system.caches.RequestType.ST.latency_hist_seqr::total     10485017                       (Unspecified)
system.caches.RequestType.ST.hit_latency_hist_seqr::bucket_size           64                       (Unspecified)
system.caches.RequestType.ST.hit_latency_hist_seqr::max_bucket          639                       (Unspecified)
system.caches.RequestType.ST.hit_latency_hist_seqr::samples     10350183                       (Unspecified)
system.caches.RequestType.ST.hit_latency_hist_seqr::mean     1.113241                       (Unspecified)
system.caches.RequestType.ST.hit_latency_hist_seqr::gmean     1.026559                       (Unspecified)
system.caches.RequestType.ST.hit_latency_hist_seqr::stdev     1.667761                       (Unspecified)
system.caches.RequestType.ST.hit_latency_hist_seqr |    10349591     99.99%     99.99% |         399      0.00%    100.00% |         172      0.00%    100.00% |           7      0.00%    100.00% |           7      0.00%    100.00% |           4      0.00%    100.00% |           2      0.00%    100.00% |           1      0.00%    100.00% |           0      0.00%    100.00% |           0      0.00%    100.00% (Unspecified)
system.caches.RequestType.ST.hit_latency_hist_seqr::total     10350183                       (Unspecified)
system.caches.RequestType.ST.miss_latency_hist_seqr::bucket_size           64                       (Unspecified)
system.caches.RequestType.ST.miss_latency_hist_seqr::max_bucket          639                       (Unspecified)
system.caches.RequestType.ST.miss_latency_hist_seqr::samples       134834                       (Unspecified)
system.caches.RequestType.ST.miss_latency_hist_seqr::mean    45.186029                       (Unspecified)
system.caches.RequestType.ST.miss_latency_hist_seqr::gmean    38.504370                       (Unspecified)
system.caches.RequestType.ST.miss_latency_hist_seqr::stdev    33.967179                       (Unspecified)
system.caches.RequestType.ST.miss_latency_hist_seqr |      105511     78.25%     78.25% |       24922     18.48%     96.74% |        3389      2.51%     99.25% |         527      0.39%     99.64% |         300      0.22%     99.86% |         139      0.10%     99.97% |          32      0.02%     99.99% |          14      0.01%    100.00% |           0      0.00%    100.00% |           0      0.00%    100.00% (Unspecified)
system.caches.RequestType.ST.miss_latency_hist_seqr::total       134834                       (Unspecified)
system.caches.RequestType.IFETCH.latency_hist_seqr::bucket_size           64                       (Unspecified)
system.caches.RequestType.IFETCH.latency_hist_seqr::max_bucket          639                       (Unspecified)
system.caches.RequestType.IFETCH.latency_hist_seqr::samples      8289389                       (Unspecified)
system.caches.RequestType.IFETCH.latency_hist_seqr::mean     3.319822                       (Unspecified)
system.caches.RequestType.IFETCH.latency_hist_seqr::gmean     1.242211                       (Unspecified)
system.caches.RequestType.IFETCH.latency_hist_seqr::stdev    11.441753                       (Unspecified)
system.caches.RequestType.IFETCH.latency_hist_seqr |     8256309     99.60%     99.60% |       20245      0.24%     99.85% |       10299      0.12%     99.97% |        1382      0.02%     99.99% |         588      0.01%     99.99% |         403      0.00%    100.00% |          87      0.00%    100.00% |          69      0.00%    100.00% |           7      0.00%    100.00% |           0      0.00%    100.00% (Unspecified)
system.caches.RequestType.IFETCH.latency_hist_seqr::total      8289389                       (Unspecified)
system.caches.RequestType.IFETCH.hit_latency_hist_seqr::bucket_size           64                       (Unspecified)
system.caches.RequestType.IFETCH.hit_latency_hist_seqr::max_bucket          639                       (Unspecified)
system.caches.RequestType.IFETCH.hit_latency_hist_seqr::samples      7787225                       (Unspecified)
system.caches.RequestType.IFETCH.hit_latency_hist_seqr::mean     1.012762                       (Unspecified)
system.caches.RequestType.IFETCH.hit_latency_hist_seqr::gmean     1.001990                       (Unspecified)
system.caches.RequestType.IFETCH.hit_latency_hist_seqr::stdev     0.733444                       (Unspecified)
system.caches.RequestType.IFETCH.hit_latency_hist_seqr |     7787012    100.00%    100.00% |         170      0.00%    100.00% |          35      0.00%    100.00% |           4      0.00%    100.00% |           3      0.00%    100.00% |           0      0.00%    100.00% |           0      0.00%    100.00% |           1      0.00%    100.00% |           0      0.00%    100.00% |           0      0.00%    100.00% (Unspecified)
system.caches.RequestType.IFETCH.hit_latency_hist_seqr::total      7787225                       (Unspecified)
system.caches.RequestType.IFETCH.miss_latency_hist_seqr::bucket_size           64                       (Unspecified)
system.caches.RequestType.IFETCH.miss_latency_hist_seqr::max_bucket          639                       (Unspecified)
system.caches.RequestType.IFETCH.miss_latency_hist_seqr::samples       502164                       (Unspecified)
system.caches.RequestType.IFETCH.miss_latency_hist_seqr::mean    39.096186                       (Unspecified)
system.caches.RequestType.IFETCH.miss_latency_hist_seqr::gmean    34.795245                       (Unspecified)
system.caches.RequestType.IFETCH.miss_latency_hist_seqr::stdev    28.110662                       (Unspecified)
system.caches.RequestType.IFETCH.miss_latency_hist_seqr |      469297     93.45%     93.45% |       20075      4.00%     97.45% |       10264      2.04%     99.50% |        1378      0.27%     99.77% |         585      0.12%     99.89% |         403      0.08%     99.97% |          87      0.02%     99.99% |          68      0.01%    100.00% |           7      0.00%    100.00% |           0      0.00%    100.00% (Unspecified)
system.caches.RequestType.IFETCH.miss_latency_hist_seqr::total       502164                       (Unspecified)
system.caches.RequestType.RMW_Read.latency_hist_seqr::bucket_size           64                       (Unspecified)
system.caches.RequestType.RMW_Read.latency_hist_seqr::max_bucket          639                       (Unspecified)
system.caches.RequestType.RMW_Read.latency_hist_seqr::samples       477446                       (Unspecified)
system.caches.RequestType.RMW_Read.latency_hist_seqr::mean     1.681499                       (Unspecified)
system.caches.RequestType.RMW_Read.latency_hist_seqr::gmean     1.228982                       (Unspecified)
system.caches.RequestType.RMW_Read.latency_hist_seqr::stdev     6.235451                       (Unspecified)
system.caches.RequestType.RMW_Read.latency_hist_seqr |      476019     99.70%     99.70% |        1185      0.25%     99.95% |         186      0.04%     99.99% |          37      0.01%    100.00% |          11      0.00%    100.00% |           7      0.00%    100.00% |           1      0.00%    100.00% |           0      0.00%    100.00% |           0      0.00%    100.00% |           0      0.00%    100.00% (Unspecified)
system.caches.RequestType.RMW_Read.latency_hist_seqr::total       477446                       (Unspecified)
system.caches.RequestType.RMW_Read.hit_latency_hist_seqr::bucket_size           32                       (Unspecified)
system.caches.RequestType.RMW_Read.hit_latency_hist_seqr::max_bucket          319                       (Unspecified)
system.caches.RequestType.RMW_Read.hit_latency_hist_seqr::samples       474638                       (Unspecified)
system.caches.RequestType.RMW_Read.hit_latency_hist_seqr::mean     1.292650                       (Unspecified)
system.caches.RequestType.RMW_Read.hit_latency_hist_seqr::gmean     1.201519                       (Unspecified)
system.caches.RequestType.RMW_Read.hit_latency_hist_seqr::stdev     1.258773                       (Unspecified)
system.caches.RequestType.RMW_Read.hit_latency_hist_seqr |      474357     99.94%     99.94% |         254      0.05%     99.99% |          17      0.00%    100.00% |           7      0.00%    100.00% |           2      0.00%    100.00% |           0      0.00%    100.00% |           1      0.00%    100.00% |           0      0.00%    100.00% |           0      0.00%    100.00% |           0      0.00%    100.00% (Unspecified)
system.caches.RequestType.RMW_Read.hit_latency_hist_seqr::total       474638                       (Unspecified)
system.caches.RequestType.RMW_Read.miss_latency_hist_seqr::bucket_size           64                       (Unspecified)
system.caches.RequestType.RMW_Read.miss_latency_hist_seqr::max_bucket          639                       (Unspecified)
system.caches.RequestType.RMW_Read.miss_latency_hist_seqr::samples         2808                       (Unspecified)
system.caches.RequestType.RMW_Read.miss_latency_hist_seqr::mean    67.408832                       (Unspecified)
system.caches.RequestType.RMW_Read.miss_latency_hist_seqr::gmean    56.050147                       (Unspecified)
system.caches.RequestType.RMW_Read.miss_latency_hist_seqr::stdev    44.700805                       (Unspecified)
system.caches.RequestType.RMW_Read.miss_latency_hist_seqr |        1408     50.14%     50.14% |        1161     41.35%     91.49% |         184      6.55%     98.04% |          36      1.28%     99.32% |          11      0.39%     99.72% |           7      0.25%     99.96% |           1      0.04%    100.00% |           0      0.00%    100.00% |           0      0.00%    100.00% |           0      0.00%    100.00% (Unspecified)
system.caches.RequestType.RMW_Read.miss_latency_hist_seqr::total         2808                       (Unspecified)
system.caches.RequestTypeMachineType.LD.Directory.miss_type_mach_latency_hist_seqr::bucket_size           64                       (Unspecified)
system.caches.RequestTypeMachineType.LD.Directory.miss_type_mach_latency_hist_seqr::max_bucket          639                       (Unspecified)
system.caches.RequestTypeMachineType.LD.Directory.miss_type_mach_latency_hist_seqr::samples       367699                       (Unspecified)
system.caches.RequestTypeMachineType.LD.Directory.miss_type_mach_latency_hist_seqr::mean    57.602966                       (Unspecified)
system.caches.RequestTypeMachineType.LD.Directory.miss_type_mach_latency_hist_seqr::gmean    49.019764                       (Unspecified)
system.caches.RequestTypeMachineType.LD.Directory.miss_type_mach_latency_hist_seqr::stdev    42.080711                       (Unspecified)
system.caches.RequestTypeMachineType.LD.Directory.miss_type_mach_latency_hist_seqr |      287559     78.20%     78.20% |       55643     15.13%     93.34% |       16170      4.40%     97.74% |        5908      1.61%     99.34% |        1363      0.37%     99.71% |         716      0.19%     99.91% |         159      0.04%     99.95% |         135      0.04%     99.99% |          45      0.01%    100.00% |           1      0.00%    100.00% (Unspecified)
system.caches.RequestTypeMachineType.LD.Directory.miss_type_mach_latency_hist_seqr::total       367699                       (Unspecified)
system.caches.RequestTypeMachineType.ST.Directory.miss_type_mach_latency_hist_seqr::bucket_size           64                       (Unspecified)
system.caches.RequestTypeMachineType.ST.Directory.miss_type_mach_latency_hist_seqr::max_bucket          639                       (Unspecified)
system.caches.RequestTypeMachineType.ST.Directory.miss_type_mach_latency_hist_seqr::samples       134834                       (Unspecified)
system.caches.RequestTypeMachineType.ST.Directory.miss_type_mach_latency_hist_seqr::mean    45.186029                       (Unspecified)
system.caches.RequestTypeMachineType.ST.Directory.miss_type_mach_latency_hist_seqr::gmean    38.504370                       (Unspecified)
system.caches.RequestTypeMachineType.ST.Directory.miss_type_mach_latency_hist_seqr::stdev    33.967179                       (Unspecified)
system.caches.RequestTypeMachineType.ST.Directory.miss_type_mach_latency_hist_seqr |      105511     78.25%     78.25% |       24922     18.48%     96.74% |        3389      2.51%     99.25% |         527      0.39%     99.64% |         300      0.22%     99.86% |         139      0.10%     99.97% |          32      0.02%     99.99% |          14      0.01%    100.00% |           0      0.00%    100.00% |           0      0.00%    100.00% (Unspecified)
system.caches.RequestTypeMachineType.ST.Directory.miss_type_mach_latency_hist_seqr::total       134834                       (Unspecified)
system.caches.RequestTypeMachineType.IFETCH.Directory.miss_type_mach_latency_hist_seqr::bucket_size           64                       (Unspecified)
system.caches.RequestTypeMachineType.IFETCH.Directory.miss_type_mach_latency_hist_seqr::max_bucket          639                       (Unspecified)
system.caches.RequestTypeMachineType.IFETCH.Directory.miss_type_mach_latency_hist_seqr::samples       502164                       (Unspecified)
system.caches.RequestTypeMachineType.IFETCH.Directory.miss_type_mach_latency_hist_seqr::mean    39.096186                       (Unspecified)
system.caches.RequestTypeMachineType.IFETCH.Directory.miss_type_mach_latency_hist_seqr::gmean    34.795245                       (Unspecified)
system.caches.RequestTypeMachineType.IFETCH.Directory.miss_type_mach_latency_hist_seqr::stdev    28.110662                       (Unspecified)
system.caches.RequestTypeMachineType.IFETCH.Directory.miss_type_mach_latency_hist_seqr |      469297     93.45%     93.45% |       20075      4.00%     97.45% |       10264      2.04%     99.50% |        1378      0.27%     99.77% |         585      0.12%     99.89% |         403      0.08%     99.97% |          87      0.02%     99.99% |          68      0.01%    100.00% |           7      0.00%    100.00% |           0      0.00%    100.00% (Unspecified)
system.caches.RequestTypeMachineType.IFETCH.Directory.miss_type_mach_latency_hist_seqr::total       502164                       (Unspecified)
system.caches.RequestTypeMachineType.RMW_Read.Directory.miss_type_mach_latency_hist_seqr::bucket_size           64                       (Unspecified)
system.caches.RequestTypeMachineType.RMW_Read.Directory.miss_type_mach_latency_hist_seqr::max_bucket          639                       (Unspecified)
system.caches.RequestTypeMachineType.RMW_Read.Directory.miss_type_mach_latency_hist_seqr::samples         2808                       (Unspecified)
system.caches.RequestTypeMachineType.RMW_Read.Directory.miss_type_mach_latency_hist_seqr::mean    67.408832                       (Unspecified)
system.caches.RequestTypeMachineType.RMW_Read.Directory.miss_type_mach_latency_hist_seqr::gmean    56.050147                       (Unspecified)
system.caches.RequestTypeMachineType.RMW_Read.Directory.miss_type_mach_latency_hist_seqr::stdev    44.700805                       (Unspecified)
system.caches.RequestTypeMachineType.RMW_Read.Directory.miss_type_mach_latency_hist_seqr |        1408     50.14%     50.14% |        1161     41.35%     91.49% |         184      6.55%     98.04% |          36      1.28%     99.32% |          11      0.39%     99.72% |           7      0.25%     99.96% |           1      0.04%    100.00% |           0      0.00%    100.00% |           0      0.00%    100.00% |           0      0.00%    100.00% (Unspecified)
system.caches.RequestTypeMachineType.RMW_Read.Directory.miss_type_mach_latency_hist_seqr::total         2808                       (Unspecified)
system.caches.controllers0.delayHistogram::samples      2014978                       # delay_histogram (Unspecified)
system.caches.controllers0.delayHistogram::mean     0.391246                       # delay_histogram (Unspecified)
system.caches.controllers0.delayHistogram::stdev     1.507140                       # delay_histogram (Unspecified)
system.caches.controllers0.delayHistogram::0-7      2011185     99.81%     99.81% # delay_histogram (Unspecified)
system.caches.controllers0.delayHistogram::8-15         2682      0.13%     99.94% # delay_histogram (Unspecified)
system.caches.controllers0.delayHistogram::16-23          748      0.04%     99.98% # delay_histogram (Unspecified)
system.caches.controllers0.delayHistogram::24-31          277      0.01%    100.00% # delay_histogram (Unspecified)
system.caches.controllers0.delayHistogram::32-39           61      0.00%    100.00% # delay_histogram (Unspecified)
system.caches.controllers0.delayHistogram::40-47           19      0.00%    100.00% # delay_histogram (Unspecified)
system.caches.controllers0.delayHistogram::48-55            5      0.00%    100.00% # delay_histogram (Unspecified)
system.caches.controllers0.delayHistogram::56-63            1      0.00%    100.00% # delay_histogram (Unspecified)
system.caches.controllers0.delayHistogram::total      2014978                       # delay_histogram (Unspecified)
system.caches.controllers0.cacheMemory.m_demand_hits     27116800                       # Number of cache demand hits (Unspecified)
system.caches.controllers0.cacheMemory.m_demand_misses      1007506                       # Number of cache demand misses (Unspecified)
system.caches.controllers0.cacheMemory.m_demand_accesses     28124306                       # Number of cache demand accesses (Unspecified)
system.caches.controllers0.forwardToCache.m_buf_msgs     0.013608                       # Average number of messages in buffer (Unspecified)
system.caches.controllers0.forwardToCache.m_stall_time  5278.869619                       # Average number of cycles messages are stalled in this MB (Unspecified)
system.caches.controllers0.mandatoryQueue.m_buf_msgs     0.436105                       # Average number of messages in buffer (Unspecified)
system.caches.controllers0.mandatoryQueue.m_stall_time  1140.379952                       # Average number of cycles messages are stalled in this MB (Unspecified)
system.caches.controllers0.power_state.pwrStateResidencyTicks::UNDEFINED  74033848000                       # Cumulative time (in ticks) in various power states (Tick)
system.caches.controllers0.requestFromCache.m_buf_msgs     0.054434                       # Average number of messages in buffer (Unspecified)
system.caches.controllers0.requestFromCache.m_stall_time  1999.999919                       # Average number of cycles messages are stalled in this MB (Unspecified)
system.caches.controllers0.responseToCache.m_buf_msgs     0.013609                       # Average number of messages in buffer (Unspecified)
system.caches.controllers0.responseToCache.m_stall_time  5016.785755                       # Average number of cycles messages are stalled in this MB (Unspecified)
system.caches.controllers1.forwardFromDir.m_buf_msgs     0.013608                       # Average number of messages in buffer (Unspecified)
system.caches.controllers1.forwardFromDir.m_stall_time   999.988316                       # Average number of cycles messages are stalled in this MB (Unspecified)
system.caches.controllers1.power_state.pwrStateResidencyTicks::UNDEFINED  74033848000                       # Cumulative time (in ticks) in various power states (Tick)
system.caches.controllers1.requestToDir.m_buf_msgs     0.027217                       # Average number of messages in buffer (Unspecified)
system.caches.controllers1.requestToDir.m_stall_time  9670.058025                       # Average number of cycles messages are stalled in this MB (Unspecified)
system.caches.controllers1.requestToMemory.m_buf_msgs     0.027244                       # Average number of messages in buffer (Unspecified)
system.caches.controllers1.requestToMemory.m_stall_time  1000.180701                       # Average number of cycles messages are stalled in this MB (Unspecified)
system.caches.controllers1.responseFromDir.m_buf_msgs     0.013609                       # Average number of messages in buffer (Unspecified)
system.caches.controllers1.responseFromDir.m_stall_time   999.999068                       # Average number of cycles messages are stalled in this MB (Unspecified)
system.caches.controllers1.responseFromMemory.m_buf_msgs     0.028808                       # Average number of messages in buffer (Unspecified)
system.caches.controllers1.responseFromMemory.m_stall_time   999.999082                       # Average number of cycles messages are stalled in this MB (Unspecified)
system.caches.network.msg_count.Control       2015010                       (Unspecified)
system.caches.network.msg_byte.Control       16120080                       (Unspecified)
system.caches.network.msg_count.Data          2014947                       (Unspecified)
system.caches.network.msg_byte.Data         145076184                       (Unspecified)
system.caches.network.msg_count.Response_Data      2015010                       (Unspecified)
system.caches.network.msg_byte.Response_Data    145080720                       (Unspecified)
system.caches.network.msg_count.Writeback_Control      2014946                       (Unspecified)
system.caches.network.msg_byte.Writeback_Control     16119568                       (Unspecified)
system.caches.network.int_link_buffers2.m_buf_msgs     0.027217                       # Average number of messages in buffer (Unspecified)
system.caches.network.int_link_buffers2.m_stall_time  7670.058431                       # Average number of cycles messages are stalled in this MB (Unspecified)
system.caches.network.int_link_buffers8.m_buf_msgs     0.013608                       # Average number of messages in buffer (Unspecified)
system.caches.network.int_link_buffers8.m_stall_time  3278.893176                       # Average number of cycles messages are stalled in this MB (Unspecified)
system.caches.network.int_link_buffers9.m_buf_msgs     0.013609                       # Average number of messages in buffer (Unspecified)
system.caches.network.int_link_buffers9.m_stall_time  3016.787808                       # Average number of cycles messages are stalled in this MB (Unspecified)
system.caches.network.power_state.pwrStateResidencyTicks::UNDEFINED  74033848000                       # Cumulative time (in ticks) in various power states (Tick)
system.caches.network.routers0.percent_links_utilized     6.804246                       (Unspecified)
system.caches.network.routers0.msg_count.Control::2      1007505                       (Unspecified)
system.caches.network.routers0.msg_bytes.Control::2      8060040                       (Unspecified)
system.caches.network.routers0.msg_count.Data::2      1007474                       (Unspecified)
system.caches.network.routers0.msg_bytes.Data::2     72538128                       (Unspecified)
system.caches.network.routers0.msg_count.Response_Data::4      1007505                       (Unspecified)
system.caches.network.routers0.msg_bytes.Response_Data::4     72540360                       (Unspecified)
system.caches.network.routers0.msg_count.Writeback_Control::3      1007473                       (Unspecified)
system.caches.network.routers0.msg_bytes.Writeback_Control::3      8059784                       (Unspecified)
system.caches.network.routers0.port_buffers3.m_buf_msgs     0.013608                       # Average number of messages in buffer (Unspecified)
system.caches.network.routers0.port_buffers3.m_stall_time  4278.881411                       # Average number of cycles messages are stalled in this MB (Unspecified)
system.caches.network.routers0.port_buffers4.m_buf_msgs     0.013609                       # Average number of messages in buffer (Unspecified)
system.caches.network.routers0.port_buffers4.m_stall_time  4016.786795                       # Average number of cycles messages are stalled in this MB (Unspecified)
system.caches.network.routers0.port_buffers7.m_buf_msgs     0.092528                       # Average number of messages in buffer (Unspecified)
system.caches.network.routers0.port_buffers7.m_stall_time  6670.058593                       # Average number of cycles messages are stalled in this MB (Unspecified)
system.caches.network.routers0.power_state.pwrStateResidencyTicks::UNDEFINED  74033848000                       # Cumulative time (in ticks) in various power states (Tick)
system.caches.network.routers0.throttle00.link_utilization     6.804332                       (Unspecified)
system.caches.network.routers0.throttle00.msg_count.Response_Data::4      1007505                       (Unspecified)
system.caches.network.routers0.throttle00.msg_bytes.Response_Data::4     72540360                       (Unspecified)
system.caches.network.routers0.throttle00.msg_count.Writeback_Control::3      1007473                       (Unspecified)
system.caches.network.routers0.throttle00.msg_bytes.Writeback_Control::3      8059784                       (Unspecified)
system.caches.network.routers0.throttle01.link_utilization     6.804161                       (Unspecified)
system.caches.network.routers0.throttle01.msg_count.Control::2      1007505                       (Unspecified)
system.caches.network.routers0.throttle01.msg_bytes.Control::2      8060040                       (Unspecified)
system.caches.network.routers0.throttle01.msg_count.Data::2      1007474                       (Unspecified)
system.caches.network.routers0.throttle01.msg_bytes.Data::2     72538128                       (Unspecified)
system.caches.network.routers1.percent_links_utilized     6.804246                       (Unspecified)
system.caches.network.routers1.msg_count.Control::2      1007505                       (Unspecified)
system.caches.network.routers1.msg_bytes.Control::2      8060040                       (Unspecified)
system.caches.network.routers1.msg_count.Data::2      1007473                       (Unspecified)
system.caches.network.routers1.msg_bytes.Data::2     72538056                       (Unspecified)
system.caches.network.routers1.msg_count.Response_Data::4      1007505                       (Unspecified)
system.caches.network.routers1.msg_bytes.Response_Data::4     72540360                       (Unspecified)
system.caches.network.routers1.msg_count.Writeback_Control::3      1007473                       (Unspecified)
system.caches.network.routers1.msg_bytes.Writeback_Control::3      8059784                       (Unspecified)
system.caches.network.routers1.port_buffers2.m_buf_msgs     0.027217                       # Average number of messages in buffer (Unspecified)
system.caches.network.routers1.port_buffers2.m_stall_time  8670.058241                       # Average number of cycles messages are stalled in this MB (Unspecified)
system.caches.network.routers1.port_buffers6.m_buf_msgs     0.018753                       # Average number of messages in buffer (Unspecified)
system.caches.network.routers1.port_buffers6.m_stall_time  2278.904914                       # Average number of cycles messages are stalled in this MB (Unspecified)
system.caches.network.routers1.port_buffers7.m_buf_msgs     0.013788                       # Average number of messages in buffer (Unspecified)
system.caches.network.routers1.port_buffers7.m_stall_time  2016.788794                       # Average number of cycles messages are stalled in this MB (Unspecified)
system.caches.network.routers1.power_state.pwrStateResidencyTicks::UNDEFINED  74033848000                       # Cumulative time (in ticks) in various power states (Tick)
system.caches.network.routers1.throttle00.link_utilization     6.804159                       (Unspecified)
system.caches.network.routers1.throttle00.msg_count.Control::2      1007505                       (Unspecified)
system.caches.network.routers1.throttle00.msg_bytes.Control::2      8060040                       (Unspecified)
system.caches.network.routers1.throttle00.msg_count.Data::2      1007473                       (Unspecified)
system.caches.network.routers1.throttle00.msg_bytes.Data::2     72538056                       (Unspecified)
system.caches.network.routers1.throttle01.link_utilization     6.804332                       (Unspecified)
system.caches.network.routers1.throttle01.msg_count.Response_Data::4      1007505                       (Unspecified)
system.caches.network.routers1.throttle01.msg_bytes.Response_Data::4     72540360                       (Unspecified)
system.caches.network.routers1.throttle01.msg_count.Writeback_Control::3      1007473                       (Unspecified)
system.caches.network.routers1.throttle01.msg_bytes.Writeback_Control::3      8059784                       (Unspecified)
system.caches.power_state.pwrStateResidencyTicks::UNDEFINED  74033848000                       # Cumulative time (in ticks) in various power states (Tick)
system.caches.sequencers.power_state.pwrStateResidencyTicks::UNDEFINED  74033848000                       # Cumulative time (in ticks) in various power states (Tick)
system.caches.sys_port_proxy.power_state.pwrStateResidencyTicks::UNDEFINED  74033848000                       # Cumulative time (in ticks) in various power states (Tick)
system.clk_domain.clock                          1000                       # Clock period in ticks (Tick)
system.clk_domain.voltage_domain.voltage            1                       # Voltage in Volts (Volt)
system.cpu.numCycles                         74033849                       # Number of cpu cycles simulated (Cycle)
system.cpu.numWorkItemsStarted                      0                       # Number of work items this cpu started (Count)
system.cpu.numWorkItemsCompleted                    0                       # Number of work items this cpu completed (Count)
system.cpu.instsAdded                        95712034                       # Number of instructions added to the IQ (excludes non-spec) (Count)
system.cpu.nonSpecInstsAdded                   918294                       # Number of non-speculative instructions added to the IQ (Count)
system.cpu.instsIssued                       92514527                       # Number of instructions issued (Count)
system.cpu.squashedInstsIssued                   1455                       # Number of squashed instructions issued (Count)
system.cpu.squashedInstsExamined             13428353                       # Number of squashed instructions iterated over during squash; mainly for profiling (Count)
system.cpu.squashedOperandsExamined          16018653                       # Number of squashed operands that are examined and possibly removed from graph (Count)
system.cpu.squashedNonSpecRemoved                 654                       # Number of squashed non-spec instructions that were removed (Count)
system.cpu.numIssuedDist::samples            69859874                       # Number of insts issued each cycle (Count)
system.cpu.numIssuedDist::mean               1.324287                       # Number of insts issued each cycle (Count)
system.cpu.numIssuedDist::stdev              1.830370                       # Number of insts issued each cycle (Count)
system.cpu.numIssuedDist::underflows                0      0.00%      0.00% # Number of insts issued each cycle (Count)
system.cpu.numIssuedDist::0                  36586114     52.37%     52.37% # Number of insts issued each cycle (Count)
system.cpu.numIssuedDist::1                  10642605     15.23%     67.60% # Number of insts issued each cycle (Count)
system.cpu.numIssuedDist::2                   6898433      9.87%     77.48% # Number of insts issued each cycle (Count)
system.cpu.numIssuedDist::3                   5265430      7.54%     85.02% # Number of insts issued each cycle (Count)
system.cpu.numIssuedDist::4                   3789319      5.42%     90.44% # Number of insts issued each cycle (Count)
system.cpu.numIssuedDist::5                   3925387      5.62%     96.06% # Number of insts issued each cycle (Count)
system.cpu.numIssuedDist::6                   1950817      2.79%     98.85% # Number of insts issued each cycle (Count)
system.cpu.numIssuedDist::7                    624499      0.89%     99.75% # Number of insts issued each cycle (Count)
system.cpu.numIssuedDist::8                    177270      0.25%    100.00% # Number of insts issued each cycle (Count)
system.cpu.numIssuedDist::overflows                 0      0.00%    100.00% # Number of insts issued each cycle (Count)
system.cpu.numIssuedDist::min_value                 0                       # Number of insts issued each cycle (Count)
system.cpu.numIssuedDist::max_value                 8                       # Number of insts issued each cycle (Count)
system.cpu.numIssuedDist::total              69859874                       # Number of insts issued each cycle (Count)
system.cpu.statFuBusy::No_OpClass                   0      0.00%      0.00% # attempts to use FU when none available (Count)
system.cpu.statFuBusy::IntAlu                   40862     18.73%     18.73% # attempts to use FU when none available (Count)
system.cpu.statFuBusy::IntMult                      0      0.00%     18.73% # attempts to use FU when none available (Count)
system.cpu.statFuBusy::IntDiv                       0      0.00%     18.73% # attempts to use FU when none available (Count)
system.cpu.statFuBusy::FloatAdd                     0      0.00%     18.73% # attempts to use FU when none available (Count)
system.cpu.statFuBusy::FloatCmp                     0      0.00%     18.73% # attempts to use FU when none available (Count)
system.cpu.statFuBusy::FloatCvt                     0      0.00%     18.73% # attempts to use FU when none available (Count)
system.cpu.statFuBusy::FloatMult                    0      0.00%     18.73% # attempts to use FU when none available (Count)
system.cpu.statFuBusy::FloatMultAcc                 0      0.00%     18.73% # attempts to use FU when none available (Count)
system.cpu.statFuBusy::FloatDiv                     0      0.00%     18.73% # attempts to use FU when none available (Count)
system.cpu.statFuBusy::FloatMisc                    0      0.00%     18.73% # attempts to use FU when none available (Count)
system.cpu.statFuBusy::FloatSqrt                    0      0.00%     18.73% # attempts to use FU when none available (Count)
system.cpu.statFuBusy::SimdAdd                      0      0.00%     18.73% # attempts to use FU when none available (Count)
system.cpu.statFuBusy::SimdAddAcc                   0      0.00%     18.73% # attempts to use FU when none available (Count)
system.cpu.statFuBusy::SimdAlu                     36      0.02%     18.75% # attempts to use FU when none available (Count)
system.cpu.statFuBusy::SimdCmp                      0      0.00%     18.75% # attempts to use FU when none available (Count)
system.cpu.statFuBusy::SimdCvt                    124      0.06%     18.80% # attempts to use FU when none available (Count)
system.cpu.statFuBusy::SimdMisc                     4      0.00%     18.81% # attempts to use FU when none available (Count)
system.cpu.statFuBusy::SimdMult                     0      0.00%     18.81% # attempts to use FU when none available (Count)
system.cpu.statFuBusy::SimdMultAcc                  0      0.00%     18.81% # attempts to use FU when none available (Count)
system.cpu.statFuBusy::SimdShift                   29      0.01%     18.82% # attempts to use FU when none available (Count)
system.cpu.statFuBusy::SimdShiftAcc                 0      0.00%     18.82% # attempts to use FU when none available (Count)
system.cpu.statFuBusy::SimdDiv                      0      0.00%     18.82% # attempts to use FU when none available (Count)
system.cpu.statFuBusy::SimdSqrt                     0      0.00%     18.82% # attempts to use FU when none available (Count)
system.cpu.statFuBusy::SimdFloatAdd                 0      0.00%     18.82% # attempts to use FU when none available (Count)
system.cpu.statFuBusy::SimdFloatAlu                 0      0.00%     18.82% # attempts to use FU when none available (Count)
system.cpu.statFuBusy::SimdFloatCmp                 0      0.00%     18.82% # attempts to use FU when none available (Count)
system.cpu.statFuBusy::SimdFloatCvt                 0      0.00%     18.82% # attempts to use FU when none available (Count)
system.cpu.statFuBusy::SimdFloatDiv                 0      0.00%     18.82% # attempts to use FU when none available (Count)
system.cpu.statFuBusy::SimdFloatMisc                0      0.00%     18.82% # attempts to use FU when none available (Count)
system.cpu.statFuBusy::SimdFloatMult                0      0.00%     18.82% # attempts to use FU when none available (Count)
system.cpu.statFuBusy::SimdFloatMultAcc             0      0.00%     18.82% # attempts to use FU when none available (Count)
system.cpu.statFuBusy::SimdFloatSqrt                0      0.00%     18.82% # attempts to use FU when none available (Count)
system.cpu.statFuBusy::SimdReduceAdd                0      0.00%     18.82% # attempts to use FU when none available (Count)
system.cpu.statFuBusy::SimdReduceAlu                0      0.00%     18.82% # attempts to use FU when none available (Count)
system.cpu.statFuBusy::SimdReduceCmp                0      0.00%     18.82% # attempts to use FU when none available (Count)
system.cpu.statFuBusy::SimdFloatReduceAdd            0      0.00%     18.82% # attempts to use FU when none available (Count)
system.cpu.statFuBusy::SimdFloatReduceCmp            0      0.00%     18.82% # attempts to use FU when none available (Count)
system.cpu.statFuBusy::SimdAes                      0      0.00%     18.82% # attempts to use FU when none available (Count)
system.cpu.statFuBusy::SimdAesMix                   0      0.00%     18.82% # attempts to use FU when none available (Count)
system.cpu.statFuBusy::SimdSha1Hash                 0      0.00%     18.82% # attempts to use FU when none available (Count)
system.cpu.statFuBusy::SimdSha1Hash2                0      0.00%     18.82% # attempts to use FU when none available (Count)
system.cpu.statFuBusy::SimdSha256Hash               0      0.00%     18.82% # attempts to use FU when none available (Count)
system.cpu.statFuBusy::SimdSha256Hash2              0      0.00%     18.82% # attempts to use FU when none available (Count)
system.cpu.statFuBusy::SimdShaSigma2                0      0.00%     18.82% # attempts to use FU when none available (Count)
system.cpu.statFuBusy::SimdShaSigma3                0      0.00%     18.82% # attempts to use FU when none available (Count)
system.cpu.statFuBusy::SimdPredAlu                  0      0.00%     18.82% # attempts to use FU when none available (Count)
system.cpu.statFuBusy::MemRead                 172191     78.93%     97.75% # attempts to use FU when none available (Count)
system.cpu.statFuBusy::MemWrite                  4547      2.08%     99.84% # attempts to use FU when none available (Count)
system.cpu.statFuBusy::FloatMemRead               243      0.11%     99.95% # attempts to use FU when none available (Count)
system.cpu.statFuBusy::FloatMemWrite              116      0.05%    100.00% # attempts to use FU when none available (Count)
system.cpu.statFuBusy::IprAccess                    0      0.00%    100.00% # attempts to use FU when none available (Count)
system.cpu.statFuBusy::InstPrefetch                 0      0.00%    100.00% # attempts to use FU when none available (Count)
system.cpu.statIssuedInstType_0::No_OpClass      1594960      1.72%      1.72% # Number of instructions issued per FU type, per thread (Count)
system.cpu.statIssuedInstType_0::IntAlu      53884465     58.24%     59.97% # Number of instructions issued per FU type, per thread (Count)
system.cpu.statIssuedInstType_0::IntMult         1914      0.00%     59.97% # Number of instructions issued per FU type, per thread (Count)
system.cpu.statIssuedInstType_0::IntDiv         39892      0.04%     60.01% # Number of instructions issued per FU type, per thread (Count)
system.cpu.statIssuedInstType_0::FloatAdd      1843003      1.99%     62.01% # Number of instructions issued per FU type, per thread (Count)
system.cpu.statIssuedInstType_0::FloatCmp            0      0.00%     62.01% # Number of instructions issued per FU type, per thread (Count)
system.cpu.statIssuedInstType_0::FloatCvt       262384      0.28%     62.29% # Number of instructions issued per FU type, per thread (Count)
system.cpu.statIssuedInstType_0::FloatMult       262144      0.28%     62.57% # Number of instructions issued per FU type, per thread (Count)
system.cpu.statIssuedInstType_0::FloatMultAcc            0      0.00%     62.57% # Number of instructions issued per FU type, per thread (Count)
system.cpu.statIssuedInstType_0::FloatDiv            0      0.00%     62.57% # Number of instructions issued per FU type, per thread (Count)
system.cpu.statIssuedInstType_0::FloatMisc            0      0.00%     62.57% # Number of instructions issued per FU type, per thread (Count)
system.cpu.statIssuedInstType_0::FloatSqrt            0      0.00%     62.57% # Number of instructions issued per FU type, per thread (Count)
system.cpu.statIssuedInstType_0::SimdAdd         6716      0.01%     62.58% # Number of instructions issued per FU type, per thread (Count)
system.cpu.statIssuedInstType_0::SimdAddAcc            0      0.00%     62.58% # Number of instructions issued per FU type, per thread (Count)
system.cpu.statIssuedInstType_0::SimdAlu       274281      0.30%     62.88% # Number of instructions issued per FU type, per thread (Count)
system.cpu.statIssuedInstType_0::SimdCmp            8      0.00%     62.88% # Number of instructions issued per FU type, per thread (Count)
system.cpu.statIssuedInstType_0::SimdCvt        13939      0.02%     62.89% # Number of instructions issued per FU type, per thread (Count)
system.cpu.statIssuedInstType_0::SimdMisc       405797      0.44%     63.33% # Number of instructions issued per FU type, per thread (Count)
system.cpu.statIssuedInstType_0::SimdMult            0      0.00%     63.33% # Number of instructions issued per FU type, per thread (Count)
system.cpu.statIssuedInstType_0::SimdMultAcc            0      0.00%     63.33% # Number of instructions issued per FU type, per thread (Count)
system.cpu.statIssuedInstType_0::SimdShift         1008      0.00%     63.33% # Number of instructions issued per FU type, per thread (Count)
system.cpu.statIssuedInstType_0::SimdShiftAcc            0      0.00%     63.33% # Number of instructions issued per FU type, per thread (Count)
system.cpu.statIssuedInstType_0::SimdDiv            0      0.00%     63.33% # Number of instructions issued per FU type, per thread (Count)
system.cpu.statIssuedInstType_0::SimdSqrt            0      0.00%     63.33% # Number of instructions issued per FU type, per thread (Count)
system.cpu.statIssuedInstType_0::SimdFloatAdd       524408      0.57%     63.90% # Number of instructions issued per FU type, per thread (Count)
system.cpu.statIssuedInstType_0::SimdFloatAlu            0      0.00%     63.90% # Number of instructions issued per FU type, per thread (Count)
system.cpu.statIssuedInstType_0::SimdFloatCmp            0      0.00%     63.90% # Number of instructions issued per FU type, per thread (Count)
system.cpu.statIssuedInstType_0::SimdFloatCvt       393533      0.43%     64.32% # Number of instructions issued per FU type, per thread (Count)
system.cpu.statIssuedInstType_0::SimdFloatDiv       131079      0.14%     64.47% # Number of instructions issued per FU type, per thread (Count)
system.cpu.statIssuedInstType_0::SimdFloatMisc            0      0.00%     64.47% # Number of instructions issued per FU type, per thread (Count)
system.cpu.statIssuedInstType_0::SimdFloatMult       393314      0.43%     64.89% # Number of instructions issued per FU type, per thread (Count)
system.cpu.statIssuedInstType_0::SimdFloatMultAcc            0      0.00%     64.89% # Number of instructions issued per FU type, per thread (Count)
system.cpu.statIssuedInstType_0::SimdFloatSqrt            0      0.00%     64.89% # Number of instructions issued per FU type, per thread (Count)
system.cpu.statIssuedInstType_0::SimdReduceAdd            0      0.00%     64.89% # Number of instructions issued per FU type, per thread (Count)
system.cpu.statIssuedInstType_0::SimdReduceAlu            0      0.00%     64.89% # Number of instructions issued per FU type, per thread (Count)
system.cpu.statIssuedInstType_0::SimdReduceCmp            0      0.00%     64.89% # Number of instructions issued per FU type, per thread (Count)
system.cpu.statIssuedInstType_0::SimdFloatReduceAdd            0      0.00%     64.89% # Number of instructions issued per FU type, per thread (Count)
system.cpu.statIssuedInstType_0::SimdFloatReduceCmp            0      0.00%     64.89% # Number of instructions issued per FU type, per thread (Count)
system.cpu.statIssuedInstType_0::SimdAes            0      0.00%     64.89% # Number of instructions issued per FU type, per thread (Count)
system.cpu.statIssuedInstType_0::SimdAesMix            0      0.00%     64.89% # Number of instructions issued per FU type, per thread (Count)
system.cpu.statIssuedInstType_0::SimdSha1Hash            0      0.00%     64.89% # Number of instructions issued per FU type, per thread (Count)
system.cpu.statIssuedInstType_0::SimdSha1Hash2            0      0.00%     64.89% # Number of instructions issued per FU type, per thread (Count)
system.cpu.statIssuedInstType_0::SimdSha256Hash            0      0.00%     64.89% # Number of instructions issued per FU type, per thread (Count)
system.cpu.statIssuedInstType_0::SimdSha256Hash2            0      0.00%     64.89% # Number of instructions issued per FU type, per thread (Count)
system.cpu.statIssuedInstType_0::SimdShaSigma2            0      0.00%     64.89% # Number of instructions issued per FU type, per thread (Count)
system.cpu.statIssuedInstType_0::SimdShaSigma3            0      0.00%     64.89% # Number of instructions issued per FU type, per thread (Count)
system.cpu.statIssuedInstType_0::SimdPredAlu            0      0.00%     64.89% # Number of instructions issued per FU type, per thread (Count)
system.cpu.statIssuedInstType_0::MemRead     19169168     20.72%     85.61% # Number of instructions issued per FU type, per thread (Count)
system.cpu.statIssuedInstType_0::MemWrite      9610906     10.39%     96.00% # Number of instructions issued per FU type, per thread (Count)
system.cpu.statIssuedInstType_0::FloatMemRead      2379154      2.57%     98.57% # Number of instructions issued per FU type, per thread (Count)
system.cpu.statIssuedInstType_0::FloatMemWrite      1322454      1.43%    100.00% # Number of instructions issued per FU type, per thread (Count)
system.cpu.statIssuedInstType_0::IprAccess            0      0.00%    100.00% # Number of instructions issued per FU type, per thread (Count)
system.cpu.statIssuedInstType_0::InstPrefetch            0      0.00%    100.00% # Number of instructions issued per FU type, per thread (Count)
system.cpu.statIssuedInstType_0::total       92514527                       # Number of instructions issued per FU type, per thread (Count)
system.cpu.issueRate                         1.249625                       # Inst issue rate ((Count/Cycle))
system.cpu.fuBusy                              218152                       # FU busy when requested (Count)
system.cpu.fuBusyRate                        0.002358                       # FU busy rate (busy events/executed inst) ((Count/Count))
system.cpu.intInstQueueReads                236576171                       # Number of integer instruction queue reads (Count)
system.cpu.intInstQueueWrites               100758512                       # Number of integer instruction queue writes (Count)
system.cpu.intInstQueueWakeupAccesses        82612083                       # Number of integer instruction queue wakeup accesses (Count)
system.cpu.fpInstQueueReads                  18532359                       # Number of floating instruction queue reads (Count)
system.cpu.fpInstQueueWrites                  9303348                       # Number of floating instruction queue writes (Count)
system.cpu.fpInstQueueWakeupAccesses          9262500                       # Number of floating instruction queue wakeup accesses (Count)
system.cpu.vecInstQueueReads                        0                       # Number of vector instruction queue reads (Count)
system.cpu.vecInstQueueWrites                       0                       # Number of vector instruction queue writes (Count)
system.cpu.vecInstQueueWakeupAccesses               0                       # Number of vector instruction queue wakeup accesses (Count)
system.cpu.intAluAccesses                    81871295                       # Number of integer alu accesses (Count)
system.cpu.fpAluAccesses                      9266424                       # Number of floating point alu accesses (Count)
system.cpu.vecAluAccesses                           0                       # Number of vector alu accesses (Count)
system.cpu.idleCycles                               0                       # Number of cycles IEW is idle (Cycle)
system.cpu.squashCycles                        154031                       # Number of cycles IEW is squashing (Cycle)
system.cpu.blockCycles                        2039890                       # Number of cycles IEW is blocking (Cycle)
system.cpu.unblockCycles                       589613                       # Number of cycles IEW is unblocking (Cycle)
system.cpu.dispatchedInsts                   96630328                       # Number of instructions dispatched to IQ (Count)
system.cpu.dispSquashedInsts                     1186                       # Number of squashed instructions skipped by dispatch (Count)
system.cpu.dispLoadInsts                     22361504                       # Number of dispatched load instructions (Count)
system.cpu.dispStoreInsts                    11346291                       # Number of dispatched store instructions (Count)
system.cpu.dispNonSpecInsts                    918286                       # Number of dispatched non-speculative instructions (Count)
system.cpu.iqFullEvents                         23901                       # Number of times the IQ has become full, causing a stall (Count)
system.cpu.lsqFullEvents                       547436                       # Number of times the LSQ has become full, causing a stall (Count)
system.cpu.memOrderViolationEvents               3551                       # Number of memory order violations (Count)
system.cpu.predictedTakenIncorrect              72657                       # Number of branches that were predicted taken incorrectly (Count)
system.cpu.predictedNotTakenIncorrect           75527                       # Number of branches that were predicted not taken incorrectly (Count)
system.cpu.branchMispredicts                   148184                       # Number of branch mispredicts detected at execute (Count)
system.cpu.numInsts                          92095251                       # Number of executed instructions (Count)
system.cpu.numLoadInsts                      21445304                       # Number of load instructions executed (Count)
system.cpu.numSquashedInsts                    419271                       # Number of squashed instructions skipped in execute (Count)
system.cpu.numSwp                                   0                       # Number of swp insts executed (Count)
system.cpu.numNop                                   0                       # Number of nop insts executed (Count)
system.cpu.numRefs                           32240826                       # Number of memory reference insts executed (Count)
system.cpu.numBranches                        6921452                       # Number of branches executed (Count)
system.cpu.numStoreInsts                     10795522                       # Number of stores executed (Count)
system.cpu.numRate                           1.243961                       # Inst execution rate ((Count/Cycle))
system.cpu.instsToCommit                     91949841                       # Cumulative count of insts sent to commit (Count)
system.cpu.writebackCount                    91874583                       # Cumulative count of insts written-back (Count)
system.cpu.producerInst                      65265168                       # Number of instructions producing a value (Count)
system.cpu.consumerInst                     104443196                       # Number of instructions consuming a value (Count)
system.cpu.wbRate                            1.240981                       # Insts written-back per cycle ((Count/Cycle))
system.cpu.wbFanout                          0.624887                       # Average fanout of values written-back ((Count/Count))
system.cpu.timesIdled                          207677                       # Number of times that the entire CPU went into an idle state and unscheduled itself (Count)
system.cpu.idleCycles                         4173975                       # Total number of cycles that the CPU has spent unscheduled due to idling (Cycle)
system.cpu.committedInsts                    46698355                       # Number of Instructions Simulated (Count)
system.cpu.committedOps                      83201955                       # Number of Ops (including micro ops) Simulated (Count)
system.cpu.cpi                               1.585363                       # CPI: Cycles Per Instruction ((Cycle/Count))
system.cpu.totalCpi                          1.585363                       # CPI: Total CPI of All Threads ((Cycle/Count))
system.cpu.ipc                               0.630770                       # IPC: Instructions Per Cycle ((Count/Cycle))
system.cpu.totalIpc                          0.630770                       # IPC: Total IPC of All Threads ((Count/Cycle))
system.cpu.intRegfileReads                  145199890                       # Number of integer regfile reads (Count)
system.cpu.intRegfileWrites                  64631209                       # Number of integer regfile writes (Count)
system.cpu.fpRegfileReads                     9165893                       # Number of floating regfile reads (Count)
system.cpu.fpRegfileWrites                    7408630                       # Number of floating regfile writes (Count)
system.cpu.ccRegfileReads                    19412387                       # number of cc regfile reads (Count)
system.cpu.ccRegfileWrites                   19723474                       # number of cc regfile writes (Count)
system.cpu.miscRegfileReads                  47260400                       # number of misc regfile reads (Count)
system.cpu.miscRegfileWrites                  1835143                       # number of misc regfile writes (Count)
system.cpu.MemDepUnit__0.insertedLoads       22361504                       # Number of loads inserted to the mem dependence unit. (Count)
system.cpu.MemDepUnit__0.insertedStores      11346291                       # Number of stores inserted to the mem dependence unit. (Count)
system.cpu.MemDepUnit__0.conflictingLoads      8668864                       # Number of conflicting loads. (Count)
system.cpu.MemDepUnit__0.conflictingStores      2149024                       # Number of conflicting stores. (Count)
system.cpu.MemDepUnit__1.insertedLoads              0                       # Number of loads inserted to the mem dependence unit. (Count)
system.cpu.MemDepUnit__1.insertedStores             0                       # Number of stores inserted to the mem dependence unit. (Count)
system.cpu.MemDepUnit__1.conflictingLoads            0                       # Number of conflicting loads. (Count)
system.cpu.MemDepUnit__1.conflictingStores            0                       # Number of conflicting stores. (Count)
system.cpu.MemDepUnit__2.insertedLoads              0                       # Number of loads inserted to the mem dependence unit. (Count)
system.cpu.MemDepUnit__2.insertedStores             0                       # Number of stores inserted to the mem dependence unit. (Count)
system.cpu.MemDepUnit__2.conflictingLoads            0                       # Number of conflicting loads. (Count)
system.cpu.MemDepUnit__2.conflictingStores            0                       # Number of conflicting stores. (Count)
system.cpu.MemDepUnit__3.insertedLoads              0                       # Number of loads inserted to the mem dependence unit. (Count)
system.cpu.MemDepUnit__3.insertedStores             0                       # Number of stores inserted to the mem dependence unit. (Count)
system.cpu.MemDepUnit__3.conflictingLoads            0                       # Number of conflicting loads. (Count)
system.cpu.MemDepUnit__3.conflictingStores            0                       # Number of conflicting stores. (Count)
system.cpu.branchPred.lookups                 7565998                       # Number of BP lookups (Count)
system.cpu.branchPred.condPredicted           2815543                       # Number of conditional branches predicted (Count)
system.cpu.branchPred.condIncorrect            146447                       # Number of conditional branches incorrect (Count)
system.cpu.branchPred.BTBLookups              4301232                       # Number of BTB lookups (Count)
system.cpu.branchPred.BTBHits                 4299211                       # Number of BTB hits (Count)
[...]
system.mem_ctrl.rdPerTurnAround::11                 6      0.99%      2.31% # Reads before turning the bus around for writes (Count)
system.mem_ctrl.rdPerTurnAround::12                 5      0.83%      3.14% # Reads before turning the bus around for writes (Count)
system.mem_ctrl.rdPerTurnAround::13                 9      1.49%      4.63% # Reads before turning the bus around for writes (Count)
system.mem_ctrl.rdPerTurnAround::14                11      1.82%      6.45% # Reads before turning the bus around for writes (Count)
system.mem_ctrl.rdPerTurnAround::15                16      2.64%      9.09% # Reads before turning the bus around for writes (Count)
system.mem_ctrl.rdPerTurnAround::16               534     88.26%     97.36% # Reads before turning the bus around for writes (Count)
system.mem_ctrl.rdPerTurnAround::17                10      1.65%     99.01% # Reads before turning the bus around for writes (Count)
system.mem_ctrl.rdPerTurnAround::18                 3      0.50%     99.50% # Reads before turning the bus around for writes (Count)
system.mem_ctrl.rdPerTurnAround::19                 3      0.50%    100.00% # Reads before turning the bus around for writes (Count)
system.mem_ctrl.rdPerTurnAround::total            605                       # Reads before turning the bus around for writes (Count)
system.mem_ctrl.wrPerTurnAround::samples          605                       # Writes before turning the bus around for reads (Count)
system.mem_ctrl.wrPerTurnAround::mean       16.009917                       # Writes before turning the bus around for reads (Count)
system.mem_ctrl.wrPerTurnAround::gmean      16.009439                       # Writes before turning the bus around for reads (Count)
system.mem_ctrl.wrPerTurnAround::stdev       0.128288                       # Writes before turning the bus around for reads (Count)
system.mem_ctrl.wrPerTurnAround::16               601     99.34%     99.34% # Writes before turning the bus around for reads (Count)
system.mem_ctrl.wrPerTurnAround::17                 2      0.33%     99.67% # Writes before turning the bus around for reads (Count)
system.mem_ctrl.wrPerTurnAround::18                 2      0.33%    100.00% # Writes before turning the bus around for reads (Count)
system.mem_ctrl.wrPerTurnAround::total            605                       # Writes before turning the bus around for reads (Count)
system.mem_ctrl.bytesReadWrQ                    15488                       # Total number of bytes read from write queue (Byte)
system.mem_ctrl.bytesReadSys                   626560                       # Total read bytes from the system interface side (Byte)
system.mem_ctrl.bytesWrittenSys                626560                       # Total written bytes from the system interface side (Byte)
system.mem_ctrl.avgRdBWSys               793242449.40952468                       # Average system read bandwidth in Byte/s ((Byte/Second))
system.mem_ctrl.avgWrBWSys               793242449.40952468                       # Average system write bandwidth in Byte/s ((Byte/Second))
system.mem_ctrl.totGap                      789867000                       # Total gap between requests (Tick)
system.mem_ctrl.avgGap                       40340.50                       # Average gap between requests ((Tick/Count))
system.mem_ctrl.requestorReadBytes::caches.controllers1       611072                       # Per-requestor bytes read from memory (Byte)
system.mem_ctrl.requestorWriteBytes::caches.controllers1       619904                       # Per-requestor bytes write to memory (Byte)
system.mem_ctrl.requestorReadRate::caches.controllers1 773634209.087041974068                       # Per-requestor bytes read from memory rate ((Byte/Second))
system.mem_ctrl.requestorWriteRate::caches.controllers1 784815767.618044495583                       # Per-requestor bytes write to memory rate ((Byte/Second))
system.mem_ctrl.requestorReadAccesses::caches.controllers1         9790                       # Per-requestor read serviced memory accesses (Count)
system.mem_ctrl.requestorWriteAccesses::caches.controllers1         9790                       # Per-requestor write serviced memory accesses (Count)
system.mem_ctrl.requestorReadTotalLat::caches.controllers1    311979250                       # Per-requestor read total memory access latency (Tick)
system.mem_ctrl.requestorWriteTotalLat::caches.controllers1  19508913000                       # Per-requestor write total memory access latency (Tick)
system.mem_ctrl.requestorReadAvgLat::caches.controllers1     31867.13                       # Per-requestor read average memory access latency ((Tick/Count))
system.mem_ctrl.requestorWriteAvgLat::caches.controllers1   1992738.82                       # Per-requestor write average memory access latency ((Tick/Count))
system.mem_ctrl.dram.bytesRead::caches.controllers1       626560                       # Number of bytes read from this memory (Byte)
system.mem_ctrl.dram.bytesRead::total          626560                       # Number of bytes read from this memory (Byte)
system.mem_ctrl.dram.bytesWritten::caches.controllers1       626560                       # Number of bytes written to this memory (Byte)
system.mem_ctrl.dram.bytesWritten::total       626560                       # Number of bytes written to this memory (Byte)
system.mem_ctrl.dram.numReads::caches.controllers1         9790                       # Number of read requests responded to by this memory (Count)
system.mem_ctrl.dram.numReads::total             9790                       # Number of read requests responded to by this memory (Count)
system.mem_ctrl.dram.numWrites::caches.controllers1         9790                       # Number of write requests responded to by this memory (Count)
system.mem_ctrl.dram.numWrites::total            9790                       # Number of write requests responded to by this memory (Count)
system.mem_ctrl.dram.bwRead::caches.controllers1    793242449                       # Total read bandwidth from this memory ((Byte/Second))
system.mem_ctrl.dram.bwRead::total          793242449                       # Total read bandwidth from this memory ((Byte/Second))
system.mem_ctrl.dram.bwWrite::caches.controllers1    793242449                       # Write bandwidth from this memory ((Byte/Second))
system.mem_ctrl.dram.bwWrite::total         793242449                       # Write bandwidth from this memory ((Byte/Second))
system.mem_ctrl.dram.bwTotal::caches.controllers1   1586484899                       # Total bandwidth to/from this memory ((Byte/Second))
system.mem_ctrl.dram.bwTotal::total        1586484899                       # Total bandwidth to/from this memory ((Byte/Second))
system.mem_ctrl.dram.readBursts                  9548                       # Number of DRAM read bursts (Count)
system.mem_ctrl.dram.writeBursts                 9686                       # Number of DRAM write bursts (Count)
system.mem_ctrl.dram.perBankRdBursts::0           519                       # Per bank write bursts (Count)
system.mem_ctrl.dram.perBankRdBursts::1           564                       # Per bank write bursts (Count)
system.mem_ctrl.dram.perBankRdBursts::2           657                       # Per bank write bursts (Count)
system.mem_ctrl.dram.perBankRdBursts::3           639                       # Per bank write bursts (Count)
system.mem_ctrl.dram.perBankRdBursts::4           599                       # Per bank write bursts (Count)
system.mem_ctrl.dram.perBankRdBursts::5           567                       # Per bank write bursts (Count)
system.mem_ctrl.dram.perBankRdBursts::6           558                       # Per bank write bursts (Count)
system.mem_ctrl.dram.perBankRdBursts::7           628                       # Per bank write bursts (Count)
system.mem_ctrl.dram.perBankRdBursts::8           519                       # Per bank write bursts (Count)
system.mem_ctrl.dram.perBankRdBursts::9           586                       # Per bank write bursts (Count)
system.mem_ctrl.dram.perBankRdBursts::10          586                       # Per bank write bursts (Count)
system.mem_ctrl.dram.perBankRdBursts::11          532                       # Per bank write bursts (Count)
system.mem_ctrl.dram.perBankRdBursts::12          636                       # Per bank write bursts (Count)
system.mem_ctrl.dram.perBankRdBursts::13          727                       # Per bank write bursts (Count)
system.mem_ctrl.dram.perBankRdBursts::14          679                       # Per bank write bursts (Count)
system.mem_ctrl.dram.perBankRdBursts::15          552                       # Per bank write bursts (Count)
system.mem_ctrl.dram.perBankWrBursts::0           519                       # Per bank write bursts (Count)
system.mem_ctrl.dram.perBankWrBursts::1           562                       # Per bank write bursts (Count)
system.mem_ctrl.dram.perBankWrBursts::2           671                       # Per bank write bursts (Count)
system.mem_ctrl.dram.perBankWrBursts::3           650                       # Per bank write bursts (Count)
system.mem_ctrl.dram.perBankWrBursts::4           607                       # Per bank write bursts (Count)
system.mem_ctrl.dram.perBankWrBursts::5           568                       # Per bank write bursts (Count)
system.mem_ctrl.dram.perBankWrBursts::6           556                       # Per bank write bursts (Count)
system.mem_ctrl.dram.perBankWrBursts::7           637                       # Per bank write bursts (Count)
system.mem_ctrl.dram.perBankWrBursts::8           519                       # Per bank write bursts (Count)
system.mem_ctrl.dram.perBankWrBursts::9           591                       # Per bank write bursts (Count)
system.mem_ctrl.dram.perBankWrBursts::10          592                       # Per bank write bursts (Count)
system.mem_ctrl.dram.perBankWrBursts::11          562                       # Per bank write bursts (Count)
system.mem_ctrl.dram.perBankWrBursts::12          654                       # Per bank write bursts (Count)
system.mem_ctrl.dram.perBankWrBursts::13          756                       # Per bank write bursts (Count)
system.mem_ctrl.dram.perBankWrBursts::14          687                       # Per bank write bursts (Count)
system.mem_ctrl.dram.perBankWrBursts::15          555                       # Per bank write bursts (Count)
system.mem_ctrl.dram.totQLat                132954250                       # Total ticks spent queuing (Tick)
system.mem_ctrl.dram.totBusLat               47740000                       # Total ticks spent in databus transfers (Tick)
system.mem_ctrl.dram.totMemAccLat           311979250                       # Total ticks spent from burst creation until serviced by the DRAM (Tick)
system.mem_ctrl.dram.avgQLat                 13924.83                       # Average queueing delay per DRAM burst ((Tick/Count))
system.mem_ctrl.dram.avgBusLat                5000.00                       # Average bus latency per DRAM burst ((Tick/Count))
system.mem_ctrl.dram.avgMemAccLat            32674.83                       # Average memory access latency per DRAM burst ((Tick/Count))
system.mem_ctrl.dram.readRowHits                 8534                       # Number of row buffer hits during reads (Count)
system.mem_ctrl.dram.writeRowHits                8945                       # Number of row buffer hits during writes (Count)
system.mem_ctrl.dram.readRowHitRate             89.38                       # Row buffer hit rate for reads (Ratio)
system.mem_ctrl.dram.writeRowHitRate            92.35                       # Row buffer hit rate for writes (Ratio)
system.mem_ctrl.dram.bytesPerActivate::samples         1752                       # Bytes accessed per row activation (Byte)
system.mem_ctrl.dram.bytesPerActivate::mean   702.429224                       # Bytes accessed per row activation (Byte)
system.mem_ctrl.dram.bytesPerActivate::gmean   503.990611                       # Bytes accessed per row activation (Byte)
system.mem_ctrl.dram.bytesPerActivate::stdev   396.598050                       # Bytes accessed per row activation (Byte)
system.mem_ctrl.dram.bytesPerActivate::0-127          191     10.90%     10.90% # Bytes accessed per row activation (Byte)
system.mem_ctrl.dram.bytesPerActivate::128-255          225     12.84%     23.74% # Bytes accessed per row activation (Byte)
system.mem_ctrl.dram.bytesPerActivate::256-383          107      6.11%     29.85% # Bytes accessed per row activation (Byte)
system.mem_ctrl.dram.bytesPerActivate::384-511           70      4.00%     33.85% # Bytes accessed per row activation (Byte)
system.mem_ctrl.dram.bytesPerActivate::512-639           66      3.77%     37.61% # Bytes accessed per row activation (Byte)
system.mem_ctrl.dram.bytesPerActivate::640-767           49      2.80%     40.41% # Bytes accessed per row activation (Byte)
system.mem_ctrl.dram.bytesPerActivate::768-895           41      2.34%     42.75% # Bytes accessed per row activation (Byte)
system.mem_ctrl.dram.bytesPerActivate::896-1023           33      1.88%     44.63% # Bytes accessed per row activation (Byte)
system.mem_ctrl.dram.bytesPerActivate::1024-1151          970     55.37%    100.00% # Bytes accessed per row activation (Byte)
system.mem_ctrl.dram.bytesPerActivate::total         1752                       # Bytes accessed per row activation (Byte)
system.mem_ctrl.dram.bytesRead                 611072                       # Total number of bytes read from DRAM (Byte)
system.mem_ctrl.dram.bytesWritten              619904                       # Total number of bytes written to DRAM (Byte)
system.mem_ctrl.dram.avgRdBW               773.634209                       # Average DRAM read bandwidth in MiBytes/s ((Byte/Second))
system.mem_ctrl.dram.avgWrBW               784.815768                       # Average DRAM write bandwidth in MiBytes/s ((Byte/Second))
system.mem_ctrl.dram.peakBW                  12800.00                       # Theoretical peak bandwidth in MiByte/s ((Byte/Second))
system.mem_ctrl.dram.busUtil                    12.18                       # Data bus utilization in percentage (Ratio)
system.mem_ctrl.dram.busUtilRead                 6.04                       # Data bus utilization in percentage for reads (Ratio)
system.mem_ctrl.dram.busUtilWrite                6.13                       # Data bus utilization in percentage for writes (Ratio)
system.mem_ctrl.dram.pageHitRate                90.88                       # Row buffer hit rate, read and write combined (Ratio)
system.mem_ctrl.dram.power_state.pwrStateResidencyTicks::UNDEFINED    789872000                       # Cumulative time (in ticks) in various power states (Tick)
system.mem_ctrl.dram.rank0.actEnergy          6183240                       # Energy for activate commands per rank (pJ) (Joule)
system.mem_ctrl.dram.rank0.preEnergy          3275085                       # Energy for precharge commands per rank (pJ) (Joule)
system.mem_ctrl.dram.rank0.readEnergy        33779340                       # Energy for read commands per rank (pJ) (Joule)
system.mem_ctrl.dram.rank0.writeEnergy       24899400                       # Energy for write commands per rank (pJ) (Joule)
system.mem_ctrl.dram.rank0.refreshEnergy 62693280.000000                       # Energy for refresh commands per rank (pJ) (Joule)
system.mem_ctrl.dram.rank0.actBackEnergy    216397080                       # Energy for active background per rank (pJ) (Joule)
system.mem_ctrl.dram.rank0.preBackEnergy    121081440                       # Energy for precharge background per rank (pJ) (Joule)
system.mem_ctrl.dram.rank0.actPowerDownEnergy            0                       # Energy for active power-down per rank (pJ) (Joule)
system.mem_ctrl.dram.rank0.prePowerDownEnergy            0                       # Energy for precharge power-down per rank (pJ) (Joule)
system.mem_ctrl.dram.rank0.selfRefreshEnergy            0                       # Energy for self refresh per rank (pJ) (Joule)
system.mem_ctrl.dram.rank0.totalEnergy      468308865                       # Total energy per rank (pJ) (Joule)
system.mem_ctrl.dram.rank0.averagePower    592.892095                       # Core power per rank (mW) (Watt)
system.mem_ctrl.dram.rank0.totalIdleTime            0                       # Total Idle time Per DRAM Rank (Tick)
system.mem_ctrl.dram.rank0.pwrStateTime::IDLE    310906250                       # Time in different power states (Tick)
system.mem_ctrl.dram.rank0.pwrStateTime::REF     26520000                       # Time in different power states (Tick)
system.mem_ctrl.dram.rank0.pwrStateTime::SREF            0                       # Time in different power states (Tick)
system.mem_ctrl.dram.rank0.pwrStateTime::PRE_PDN            0                       # Time in different power states (Tick)
system.mem_ctrl.dram.rank0.pwrStateTime::ACT    452445750                       # Time in different power states (Tick)
system.mem_ctrl.dram.rank0.pwrStateTime::ACT_PDN            0                       # Time in different power states (Tick)
system.mem_ctrl.dram.rank1.actEnergy          6347460                       # Energy for activate commands per rank (pJ) (Joule)
system.mem_ctrl.dram.rank1.preEnergy          3373755                       # Energy for precharge commands per rank (pJ) (Joule)
system.mem_ctrl.dram.rank1.readEnergy        34393380                       # Energy for read commands per rank (pJ) (Joule)
system.mem_ctrl.dram.rank1.writeEnergy       25661520                       # Energy for write commands per rank (pJ) (Joule)
system.mem_ctrl.dram.rank1.refreshEnergy 62693280.000000                       # Energy for refresh commands per rank (pJ) (Joule)
system.mem_ctrl.dram.rank1.actBackEnergy    209524590                       # Energy for active background per rank (pJ) (Joule)
system.mem_ctrl.dram.rank1.preBackEnergy    126868800                       # Energy for precharge background per rank (pJ) (Joule)
system.mem_ctrl.dram.rank1.actPowerDownEnergy            0                       # Energy for active power-down per rank (pJ) (Joule)
system.mem_ctrl.dram.rank1.prePowerDownEnergy            0                       # Energy for precharge power-down per rank (pJ) (Joule)
system.mem_ctrl.dram.rank1.selfRefreshEnergy            0                       # Energy for self refresh per rank (pJ) (Joule)
system.mem_ctrl.dram.rank1.totalEnergy      468862785                       # Total energy per rank (pJ) (Joule)
system.mem_ctrl.dram.rank1.averagePower    593.593373                       # Core power per rank (mW) (Watt)
system.mem_ctrl.dram.rank1.totalIdleTime            0                       # Total Idle time Per DRAM Rank (Tick)
system.mem_ctrl.dram.rank1.pwrStateTime::IDLE    325809500                       # Time in different power states (Tick)
system.mem_ctrl.dram.rank1.pwrStateTime::REF     26520000                       # Time in different power states (Tick)
system.mem_ctrl.dram.rank1.pwrStateTime::SREF            0                       # Time in different power states (Tick)
system.mem_ctrl.dram.rank1.pwrStateTime::PRE_PDN            0                       # Time in different power states (Tick)
system.mem_ctrl.dram.rank1.pwrStateTime::ACT    437542500                       # Time in different power states (Tick)
system.mem_ctrl.dram.rank1.pwrStateTime::ACT_PDN            0                       # Time in different power states (Tick)
system.mem_ctrl.power_state.pwrStateResidencyTicks::UNDEFINED    789872000                       # Cumulative time (in ticks) in various power states (Tick)
system.workload.inst.arm                            0                       # number of arm instructions executed (Count)
system.workload.inst.quiesce                        0                       # number of quiesce instructions executed (Count)

---------- End Simulation Statistics   ----------
