
---------- Begin Simulation Statistics ----------
simSeconds                                   0.055966                       # Number of seconds simulated (Second)
simTicks                                  55965591000                       # Number of ticks simulated (Tick)
finalTick                                 55965591000                       # Number of ticks from beginning of simulation (restored from checkpoints and never reset) (Tick)
simFreq                                  1000000000000                       # The number of ticks per simulated second ((Tick/Second))
hostSeconds                                    355.52                       # Real time elapsed on the host (Second)
hostTickRate                                157419612                       # The number of ticks simulated per host second (ticks/s) ((Tick/Second))
hostMemory                                    9639676                       # Number of bytes of host memory used (Byte)
simInsts                                     46698355                       # Number of instructions simulated (Count)
simOps                                       83201955                       # Number of ops (including micro ops) simulated (Count)
hostInstRate                                   131353                       # Simulator instruction rate (inst/s) ((Count/Second))
hostOpRate                                     234030                       # Simulator op (including micro ops) rate (op/s) ((Count/Second))
system.caches.delayHistogram::bucket_size            4                       # delay histogram for all message (Unspecified)
system.caches.delayHistogram::max_bucket           39                       # delay histogram for all message (Unspecified)
system.caches.delayHistogram::samples          422262                       # delay histogram for all message (Unspecified)
system.caches.delayHistogram::mean           0.066243                       # delay histogram for all message (Unspecified)
system.caches.delayHistogram::stdev          0.646987                       # delay histogram for all message (Unspecified)
system.caches.delayHistogram             |      417981     98.99%     98.99% |        4058      0.96%     99.95% |         142      0.03%     99.98% |          10      0.00%     99.98% |          51      0.01%    100.00% |           5      0.00%    100.00% |          15      0.00%    100.00% |           0      0.00%    100.00% |           0      0.00%    100.00% |           0      0.00%    100.00% # delay histogram for all message (Unspecified)
system.caches.delayHistogram::total            422262                       # delay histogram for all message (Unspecified)
system.caches.m_outstandReqHistSeqr::bucket_size            2                       (Unspecified)
system.caches.m_outstandReqHistSeqr::max_bucket           19                       (Unspecified)
system.caches.m_outstandReqHistSeqr::samples     27809743                       (Unspecified)
system.caches.m_outstandReqHistSeqr::mean     1.392175                       (Unspecified)
system.caches.m_outstandReqHistSeqr::gmean     1.266835                       (Unspecified)
system.caches.m_outstandReqHistSeqr::stdev     0.760220                       (Unspecified)
system.caches.m_outstandReqHistSeqr      |    19826965     71.30%     71.30% |     7370506     26.50%     97.80% |      559005      2.01%     99.81% |       22542      0.08%     99.89% |       11949      0.04%     99.93% |       12731      0.05%     99.98% |        2997      0.01%     99.99% |        1722      0.01%    100.00% |        1326      0.00%    100.00% |           0      0.00%    100.00% (Unspecified)
system.caches.m_outstandReqHistSeqr::total     27809743                       (Unspecified)
system.caches.m_latencyHistSeqr::bucket_size           64                       (Unspecified)
system.caches.m_latencyHistSeqr::max_bucket          639                       (Unspecified)
system.caches.m_latencyHistSeqr::samples     28099957                       (Unspecified)
system.caches.m_latencyHistSeqr::mean        1.332458                       (Unspecified)
system.caches.m_latencyHistSeqr::gmean       1.035499                       (Unspecified)
system.caches.m_latencyHistSeqr::stdev       4.618374                       (Unspecified)
system.caches.m_latencyHistSeqr          |    28062612     99.87%     99.87% |       31636      0.11%     99.98% |        4137      0.01%     99.99% |         840      0.00%    100.00% |         479      0.00%    100.00% |         206      0.00%    100.00% |          14      0.00%    100.00% |          25      0.00%    100.00% |           8      0.00%    100.00% |           0      0.00%    100.00% (Unspecified)
system.caches.m_latencyHistSeqr::total       28099957                       (Unspecified)
system.caches.m_hitLatencyHistSeqr::bucket_size           64                       (Unspecified)
system.caches.m_hitLatencyHistSeqr::max_bucket          639                       (Unspecified)
system.caches.m_hitLatencyHistSeqr::samples     27888570                       (Unspecified)
system.caches.m_hitLatencyHistSeqr::mean     1.014964                       (Unspecified)
system.caches.m_hitLatencyHistSeqr::gmean     1.007757                       (Unspecified)
system.caches.m_hitLatencyHistSeqr::stdev     0.526395                       (Unspecified)
system.caches.m_hitLatencyHistSeqr       |    27888201    100.00%    100.00% |         293      0.00%    100.00% |          57      0.00%    100.00% |           5      0.00%    100.00% |          12      0.00%    100.00% |           1      0.00%    100.00% |           0      0.00%    100.00% |           1      0.00%    100.00% |           0      0.00%    100.00% |           0      0.00%    100.00% (Unspecified)
system.caches.m_hitLatencyHistSeqr::total     27888570                       (Unspecified)
system.caches.m_missLatencyHistSeqr::bucket_size           64                       (Unspecified)
system.caches.m_missLatencyHistSeqr::max_bucket          639                       (Unspecified)
system.caches.m_missLatencyHistSeqr::samples       211387                       (Unspecified)
system.caches.m_missLatencyHistSeqr::mean    43.219838                       (Unspecified)
system.caches.m_missLatencyHistSeqr::gmean    37.250736                       (Unspecified)
system.caches.m_missLatencyHistSeqr::stdev    32.108229                       (Unspecified)
system.caches.m_missLatencyHistSeqr      |      174411     82.51%     82.51% |       31343     14.83%     97.34% |        4080      1.93%     99.27% |         835      0.40%     99.66% |         467      0.22%     99.88% |         205      0.10%     99.98% |          14      0.01%     99.98% |          24      0.01%    100.00% |           8      0.00%    100.00% |           0      0.00%    100.00% (Unspecified)
system.caches.m_missLatencyHistSeqr::total       211387                       (Unspecified)
system.caches.delayVCHist.vnet_1::bucket_size            1                       # delay histogram for vnet_1 (Unspecified)
system.caches.delayVCHist.vnet_1::max_bucket            9                       # delay histogram for vnet_1 (Unspecified)
system.caches.delayVCHist.vnet_1::samples       211387                       # delay histogram for vnet_1 (Unspecified)
system.caches.delayVCHist.vnet_1::mean       0.012839                       # delay histogram for vnet_1 (Unspecified)
system.caches.delayVCHist.vnet_1::stdev      0.259995                       # delay histogram for vnet_1 (Unspecified)
system.caches.delayVCHist.vnet_1         |      210746     99.70%     99.70% |           0      0.00%     99.70% |         256      0.12%     99.82% |           0      0.00%     99.82% |         119      0.06%     99.87% |           0      0.00%     99.87% |         201      0.10%     99.97% |           0      0.00%     99.97% |          65      0.03%    100.00% |           0      0.00%    100.00% # delay histogram for vnet_1 (Unspecified)
system.caches.delayVCHist.vnet_1::total        211387                       # delay histogram for vnet_1 (Unspecified)
system.caches.delayVCHist.vnet_2::bucket_size            4                       # delay histogram for vnet_2 (Unspecified)
system.caches.delayVCHist.vnet_2::max_bucket           39                       # delay histogram for vnet_2 (Unspecified)
system.caches.delayVCHist.vnet_2::samples       210875                       # delay histogram for vnet_2 (Unspecified)
system.caches.delayVCHist.vnet_2::mean       0.119777                       # delay histogram for vnet_2 (Unspecified)
system.caches.delayVCHist.vnet_2::stdev      0.874480                       # delay histogram for vnet_2 (Unspecified)
system.caches.delayVCHist.vnet_2         |      206979     98.15%     98.15% |        3738      1.77%     99.93% |          77      0.04%     99.96% |          10      0.00%     99.97% |          51      0.02%     99.99% |           5      0.00%     99.99% |          15      0.01%    100.00% |           0      0.00%    100.00% |           0      0.00%    100.00% |           0      0.00%    100.00% # delay histogram for vnet_2 (Unspecified)
system.caches.delayVCHist.vnet_2::total        210875                       # delay histogram for vnet_2 (Unspecified)
system.caches.L1Cache_Controller.Load         8912400      0.00%      0.00% (Unspecified)
system.caches.L1Cache_Controller.Ifetch       8235901      0.00%      0.00% (Unspecified)
system.caches.L1Cache_Controller.Store       10951657      0.00%      0.00% (Unspecified)
system.caches.L1Cache_Controller.Data          211387      0.00%      0.00% (Unspecified)
system.caches.L1Cache_Controller.Replacement       210876      0.00%      0.00% (Unspecified)
system.caches.L1Cache_Controller.Writeback_Ack       210875      0.00%      0.00% (Unspecified)
system.caches.L1Cache_Controller.I.Load         61020      0.00%      0.00% (Unspecified)
system.caches.L1Cache_Controller.I.Ifetch        13919      0.00%      0.00% (Unspecified)
system.caches.L1Cache_Controller.I.Store       136449      0.00%      0.00% (Unspecified)
system.caches.L1Cache_Controller.M.Load       8851380      0.00%      0.00% (Unspecified)
system.caches.L1Cache_Controller.M.Ifetch      8221982      0.00%      0.00% (Unspecified)
system.caches.L1Cache_Controller.M.Store     10815208      0.00%      0.00% (Unspecified)
system.caches.L1Cache_Controller.M.Replacement       210876      0.00%      0.00% (Unspecified)
system.caches.L1Cache_Controller.MI.Writeback_Ack       210875      0.00%      0.00% (Unspecified)
system.caches.L1Cache_Controller.IS.Data        74938      0.00%      0.00% (Unspecified)
system.caches.L1Cache_Controller.IM.Data       136449      0.00%      0.00% (Unspecified)
system.caches.Directory_Controller.GETX        211387      0.00%      0.00% (Unspecified)
system.caches.Directory_Controller.PUTX        210875      0.00%      0.00% (Unspecified)
system.caches.Directory_Controller.Memory_Data       211387      0.00%      0.00% (Unspecified)
system.caches.Directory_Controller.Memory_Ack       210875      0.00%      0.00% (Unspecified)
system.caches.Directory_Controller.I.GETX       211387      0.00%      0.00% (Unspecified)
system.caches.Directory_Controller.M.PUTX       210875      0.00%      0.00% (Unspecified)
system.caches.Directory_Controller.IM.Memory_Data       211387      0.00%      0.00% (Unspecified)
system.caches.Directory_Controller.MI.Memory_Ack       210875      0.00%      0.00% (Unspecified)
system.caches.MachineType.Directory.miss_mach_latency_hist_seqr::bucket_size           64                       (Unspecified)
system.caches.MachineType.Directory.miss_mach_latency_hist_seqr::max_bucket          639                       (Unspecified)
system.caches.MachineType.Directory.miss_mach_latency_hist_seqr::samples       211387                       (Unspecified)
system.caches.MachineType.Directory.miss_mach_latency_hist_seqr::mean    43.219838                       (Unspecified)
system.caches.MachineType.Directory.miss_mach_latency_hist_seqr::gmean    37.250736                       (Unspecified)
system.caches.MachineType.Directory.miss_mach_latency_hist_seqr::stdev    32.108229                       (Unspecified)
system.caches.MachineType.Directory.miss_mach_latency_hist_seqr |      174411     82.51%     82.51% |       31343     14.83%     97.34% |        4080      1.93%     99.27% |         835      0.40%     99.66% |         467      0.22%     99.88% |         205      0.10%     99.98% |          14      0.01%     99.98% |          24      0.01%    100.00% |           8      0.00%    100.00% |           0      0.00%    100.00% (Unspecified)
system.caches.MachineType.Directory.miss_mach_latency_hist_seqr::total       211387                       (Unspecified)
system.caches.MachineType.Directory.miss_latency_hist_seqr.issue_to_initial_request::bucket_size            1                       (Unspecified)
system.caches.MachineType.Directory.miss_latency_hist_seqr.issue_to_initial_request::max_bucket            9                       (Unspecified)
system.caches.MachineType.Directory.miss_latency_hist_seqr.issue_to_initial_request::samples            1                       (Unspecified)
system.caches.MachineType.Directory.miss_latency_hist_seqr.issue_to_initial_request::stdev          nan                       (Unspecified)
system.caches.MachineType.Directory.miss_latency_hist_seqr.issue_to_initial_request |           1    100.00%    100.00% |           0      0.00%    100.00% |           0      0.00%    100.00% |           0      0.00%    100.00% |           0      0.00%    100.00% |           0      0.00%    100.00% |           0      0.00%    100.00% |           0      0.00%    100.00% |           0      0.00%    100.00% |           0      0.00%    100.00% (Unspecified)
system.caches.MachineType.Directory.miss_latency_hist_seqr.issue_to_initial_request::total            1                       (Unspecified)
system.caches.MachineType.Directory.miss_latency_hist_seqr.initial_to_forward::bucket_size            1                       (Unspecified)
system.caches.MachineType.Directory.miss_latency_hist_seqr.initial_to_forward::max_bucket            9                       (Unspecified)
system.caches.MachineType.Directory.miss_latency_hist_seqr.initial_to_forward::samples            1                       (Unspecified)
system.caches.MachineType.Directory.miss_latency_hist_seqr.initial_to_forward::stdev          nan                       (Unspecified)
system.caches.MachineType.Directory.miss_latency_hist_seqr.initial_to_forward |           1    100.00%    100.00% |           0      0.00%    100.00% |           0      0.00%    100.00% |           0      0.00%    100.00% |           0      0.00%    100.00% |           0      0.00%    100.00% |           0      0.00%    100.00% |           0      0.00%    100.00% |           0      0.00%    100.00% |           0      0.00%    100.00% (Unspecified)
system.caches.MachineType.Directory.miss_latency_hist_seqr.initial_to_forward::total            1                       (Unspecified)
system.caches.MachineType.Directory.miss_latency_hist_seqr.forward_to_first_response::bucket_size            1                       (Unspecified)
system.caches.MachineType.Directory.miss_latency_hist_seqr.forward_to_first_response::max_bucket            9                       (Unspecified)
system.caches.MachineType.Directory.miss_latency_hist_seqr.forward_to_first_response::samples            1                       (Unspecified)
system.caches.MachineType.Directory.miss_latency_hist_seqr.forward_to_first_response::stdev          nan                       (Unspecified)
system.caches.MachineType.Directory.miss_latency_hist_seqr.forward_to_first_response |           1    100.00%    100.00% |           0      0.00%    100.00% |           0      0.00%    100.00% |           0      0.00%    100.00% |           0      0.00%    100.00% |           0      0.00%    100.00% |           0      0.00%    100.00% |           0      0.00%    100.00% |           0      0.00%    100.00% |           0      0.00%    100.00% (Unspecified)
system.caches.MachineType.Directory.miss_latency_hist_seqr.forward_to_first_response::total            1                       (Unspecified)
system.caches.MachineType.Directory.miss_latency_hist_seqr.first_response_to_completion::bucket_size            8                       (Unspecified)
system.caches.MachineType.Directory.miss_latency_hist_seqr.first_response_to_completion::max_bucket           79                       (Unspecified)
system.caches.MachineType.Directory.miss_latency_hist_seqr.first_response_to_completion::samples            1                       (Unspecified)
system.caches.MachineType.Directory.miss_latency_hist_seqr.first_response_to_completion::mean           73                       (Unspecified)
system.caches.MachineType.Directory.miss_latency_hist_seqr.first_response_to_completion::gmean    73.000000                       (Unspecified)
system.caches.MachineType.Directory.miss_latency_hist_seqr.first_response_to_completion::stdev          nan                       (Unspecified)
system.caches.MachineType.Directory.miss_latency_hist_seqr.first_response_to_completion |           0      0.00%      0.00% |           0      0.00%      0.00% |           0      0.00%      0.00% |           0      0.00%      0.00% |           0      0.00%      0.00% |           0      0.00%      0.00% |           0      0.00%      0.00% |           0      0.00%      0.00% |           0      0.00%      0.00% |           1    100.00%    100.00% (Unspecified)
system.caches.MachineType.Directory.miss_latency_hist_seqr.first_response_to_completion::total            1                       (Unspecified)
system.caches.MachineType.Directory.incomplete_times_seqr       211386                       (Unspecified)
system.caches.RequestType.LD.latency_hist_seqr::bucket_size           64                       (Unspecified)
system.caches.RequestType.LD.latency_hist_seqr::max_bucket          639                       (Unspecified)
system.caches.RequestType.LD.latency_hist_seqr::samples      8912400                       (Unspecified)
system.caches.RequestType.LD.latency_hist_seqr::mean     1.382114                       (Unspecified)
system.caches.RequestType.LD.latency_hist_seqr::gmean     1.027910                       (Unspecified)
system.caches.RequestType.LD.latency_hist_seqr::stdev     5.566540                       (Unspecified)
system.caches.RequestType.LD.latency_hist_seqr |     8896785     99.82%     99.82% |       12468      0.14%     99.96% |        2311      0.03%     99.99% |         413      0.00%    100.00% |         279      0.00%    100.00% |         119      0.00%    100.00% |           8      0.00%    100.00% |          13      0.00%    100.00% |           4      0.00%    100.00% |           0      0.00%    100.00% (Unspecified)
system.caches.RequestType.LD.latency_hist_seqr::total      8912400                       (Unspecified)
system.caches.RequestType.LD.hit_latency_hist_seqr::bucket_size           64                       (Unspecified)
system.caches.RequestType.LD.hit_latency_hist_seqr::max_bucket          639                       (Unspecified)
system.caches.RequestType.LD.hit_latency_hist_seqr::samples      8851380                       (Unspecified)
system.caches.RequestType.LD.hit_latency_hist_seqr::mean     1.009888                       (Unspecified)
system.caches.RequestType.LD.hit_latency_hist_seqr::gmean     1.001139                       (Unspecified)
system.caches.RequestType.LD.hit_latency_hist_seqr::stdev     0.747461                       (Unspecified)
system.caches.RequestType.LD.hit_latency_hist_seqr |     8851131    100.00%    100.00% |         201      0.00%    100.00% |          37      0.00%    100.00% |           3      0.00%    100.00% |           7      0.00%    100.00% |           0      0.00%    100.00% |           0      0.00%    100.00% |           1      0.00%    100.00% |           0      0.00%    100.00% |           0      0.00%    100.00% (Unspecified)
system.caches.RequestType.LD.hit_latency_hist_seqr::total      8851380                       (Unspecified)
system.caches.RequestType.LD.miss_latency_hist_seqr::bucket_size           64                       (Unspecified)
system.caches.RequestType.LD.miss_latency_hist_seqr::max_bucket          639                       (Unspecified)
system.caches.RequestType.LD.miss_latency_hist_seqr::samples        61020                       (Unspecified)
system.caches.RequestType.LD.miss_latency_hist_seqr::mean    55.376155                       (Unspecified)
system.caches.RequestType.LD.miss_latency_hist_seqr::gmean    47.255186                       (Unspecified)
system.caches.RequestType.LD.miss_latency_hist_seqr::stdev    38.849762                       (Unspecified)
system.caches.RequestType.LD.miss_latency_hist_seqr |       45654     74.82%     74.82% |       12267     20.10%     94.92% |        2274      3.73%     98.65% |         410      0.67%     99.32% |         272      0.45%     99.77% |         119      0.20%     99.96% |           8      0.01%     99.97% |          12      0.02%     99.99% |           4      0.01%    100.00% |           0      0.00%    100.00% (Unspecified)
system.caches.RequestType.LD.miss_latency_hist_seqr::total        61020                       (Unspecified)
system.caches.RequestType.ST.latency_hist_seqr::bucket_size           64                       (Unspecified)
system.caches.RequestType.ST.latency_hist_seqr::max_bucket          639                       (Unspecified)
system.caches.RequestType.ST.latency_hist_seqr::samples     10484955                       (Unspecified)
system.caches.RequestType.ST.latency_hist_seqr::mean     1.488450                       (Unspecified)
system.caches.RequestType.ST.latency_hist_seqr::gmean     1.057942                       (Unspecified)
system.caches.RequestType.ST.latency_hist_seqr::stdev     5.113601                       (Unspecified)
system.caches.RequestType.ST.latency_hist_seqr |    10465869     99.82%     99.82% |       16997      0.16%     99.98% |        1467      0.01%     99.99% |         383      0.00%    100.00% |         157      0.00%    100.00% |          67      0.00%    100.00% |           3      0.00%    100.00% |           9      0.00%    100.00% |           3      0.00%    100.00% |           0      0.00%    100.00% (Unspecified)
system.caches.RequestType.ST.latency_hist_seqr::total     10484955                       (Unspecified)
system.caches.RequestType.ST.hit_latency_hist_seqr::bucket_size           32                       (Unspecified)
system.caches.RequestType.ST.hit_latency_hist_seqr::max_bucket          319                       (Unspecified)
system.caches.RequestType.ST.hit_latency_hist_seqr::samples     10348995                       (Unspecified)
system.caches.RequestType.ST.hit_latency_hist_seqr::mean     1.016715                       (Unspecified)
system.caches.RequestType.ST.hit_latency_hist_seqr::gmean     1.011115                       (Unspecified)
system.caches.RequestType.ST.hit_latency_hist_seqr::stdev     0.251846                       (Unspecified)
system.caches.RequestType.ST.hit_latency_hist_seqr |    10348912    100.00%    100.00% |          47      0.00%    100.00% |          28      0.00%    100.00% |           5      0.00%    100.00% |           1      0.00%    100.00% |           1      0.00%    100.00% |           1      0.00%    100.00% |           0      0.00%    100.00% |           0      0.00%    100.00% |           0      0.00%    100.00% (Unspecified)
system.caches.RequestType.ST.hit_latency_hist_seqr::total     10348995                       (Unspecified)
system.caches.RequestType.ST.miss_latency_hist_seqr::bucket_size           64                       (Unspecified)
system.caches.RequestType.ST.miss_latency_hist_seqr::max_bucket          639                       (Unspecified)
system.caches.RequestType.ST.miss_latency_hist_seqr::samples       135960                       (Unspecified)
system.caches.RequestType.ST.miss_latency_hist_seqr::mean    37.395984                       (Unspecified)
system.caches.RequestType.ST.miss_latency_hist_seqr::gmean    33.193229                       (Unspecified)
system.caches.RequestType.ST.miss_latency_hist_seqr::stdev    26.560070                       (Unspecified)
system.caches.RequestType.ST.miss_latency_hist_seqr |      116910     85.99%     85.99% |       16964     12.48%     98.47% |        1465      1.08%     99.54% |         382      0.28%     99.82% |         157      0.12%     99.94% |          67      0.05%     99.99% |           3      0.00%     99.99% |           9      0.01%    100.00% |           3      0.00%    100.00% |           0      0.00%    100.00% (Unspecified)
system.caches.RequestType.ST.miss_latency_hist_seqr::total       135960                       (Unspecified)
system.caches.RequestType.IFETCH.latency_hist_seqr::bucket_size           64                       (Unspecified)
system.caches.RequestType.IFETCH.latency_hist_seqr::max_bucket          639                       (Unspecified)
system.caches.RequestType.IFETCH.latency_hist_seqr::samples      8235900                       (Unspecified)
system.caches.RequestType.IFETCH.latency_hist_seqr::mean     1.079291                       (Unspecified)
system.caches.RequestType.IFETCH.latency_hist_seqr::gmean     1.006636                       (Unspecified)
system.caches.RequestType.IFETCH.latency_hist_seqr::stdev     2.334932                       (Unspecified)
system.caches.RequestType.IFETCH.latency_hist_seqr |     8233483     99.97%     99.97% |        1979      0.02%     99.99% |         330      0.00%    100.00% |          43      0.00%    100.00% |          41      0.00%    100.00% |          17      0.00%    100.00% |           3      0.00%    100.00% |           3      0.00%    100.00% |           1      0.00%    100.00% |           0      0.00%    100.00% (Unspecified)
system.caches.RequestType.IFETCH.latency_hist_seqr::total      8235900                       (Unspecified)
system.caches.RequestType.IFETCH.hit_latency_hist_seqr::bucket_size           64                       (Unspecified)
system.caches.RequestType.IFETCH.hit_latency_hist_seqr::max_bucket          639                       (Unspecified)
system.caches.RequestType.IFETCH.hit_latency_hist_seqr::samples      8221982                       (Unspecified)
system.caches.RequestType.IFETCH.hit_latency_hist_seqr::mean     1.003595                       (Unspecified)
system.caches.RequestType.IFETCH.hit_latency_hist_seqr::gmean     1.000394                       (Unspecified)
system.caches.RequestType.IFETCH.hit_latency_hist_seqr::stdev     0.490789                       (Unspecified)
system.caches.RequestType.IFETCH.hit_latency_hist_seqr |     8221898    100.00%    100.00% |          59      0.00%    100.00% |          18      0.00%    100.00% |           1      0.00%    100.00% |           5      0.00%    100.00% |           1      0.00%    100.00% |           0      0.00%    100.00% |           0      0.00%    100.00% |           0      0.00%    100.00% |           0      0.00%    100.00% (Unspecified)
system.caches.RequestType.IFETCH.hit_latency_hist_seqr::total      8221982                       (Unspecified)
system.caches.RequestType.IFETCH.miss_latency_hist_seqr::bucket_size           64                       (Unspecified)
system.caches.RequestType.IFETCH.miss_latency_hist_seqr::max_bucket          639                       (Unspecified)
system.caches.RequestType.IFETCH.miss_latency_hist_seqr::samples        13918                       (Unspecified)
system.caches.RequestType.IFETCH.miss_latency_hist_seqr::mean    45.796020                       (Unspecified)
system.caches.RequestType.IFETCH.miss_latency_hist_seqr::gmean    39.704806                       (Unspecified)
system.caches.RequestType.IFETCH.miss_latency_hist_seqr::stdev    32.877776                       (Unspecified)
system.caches.RequestType.IFETCH.miss_latency_hist_seqr |       11585     83.24%     83.24% |        1920     13.80%     97.03% |         312      2.24%     99.27% |          42      0.30%     99.58% |          36      0.26%     99.83% |          16      0.11%     99.95% |           3      0.02%     99.97% |           3      0.02%     99.99% |           1      0.01%    100.00% |           0      0.00%    100.00% (Unspecified)
system.caches.RequestType.IFETCH.miss_latency_hist_seqr::total        13918                       (Unspecified)
system.caches.RequestType.RMW_Read.latency_hist_seqr::bucket_size           64                       (Unspecified)
system.caches.RequestType.RMW_Read.latency_hist_seqr::max_bucket          639                       (Unspecified)
system.caches.RequestType.RMW_Read.latency_hist_seqr::samples       466702                       (Unspecified)
system.caches.RequestType.RMW_Read.latency_hist_seqr::mean     1.347303                       (Unspecified)
system.caches.RequestType.RMW_Read.latency_hist_seqr::gmean     1.212270                       (Unspecified)
system.caches.RequestType.RMW_Read.latency_hist_seqr::stdev     2.665152                       (Unspecified)
system.caches.RequestType.RMW_Read.latency_hist_seqr |      466475     99.95%     99.95% |         192      0.04%     99.99% |          29      0.01%    100.00% |           1      0.00%    100.00% |           2      0.00%    100.00% |           3      0.00%    100.00% |           0      0.00%    100.00% |           0      0.00%    100.00% |           0      0.00%    100.00% |           0      0.00%    100.00% (Unspecified)
system.caches.RequestType.RMW_Read.latency_hist_seqr::total       466702                       (Unspecified)
system.caches.RequestType.RMW_Read.hit_latency_hist_seqr::bucket_size            8                       (Unspecified)
system.caches.RequestType.RMW_Read.hit_latency_hist_seqr::max_bucket           79                       (Unspecified)
system.caches.RequestType.RMW_Read.hit_latency_hist_seqr::samples       466213                       (Unspecified)
system.caches.RequestType.RMW_Read.hit_latency_hist_seqr::mean     1.272974                       (Unspecified)
system.caches.RequestType.RMW_Read.hit_latency_hist_seqr::gmean     1.207209                       (Unspecified)
system.caches.RequestType.RMW_Read.hit_latency_hist_seqr::stdev     0.492782                       (Unspecified)
system.caches.RequestType.RMW_Read.hit_latency_hist_seqr |      466185     99.99%     99.99% |           1      0.00%     99.99% |          11      0.00%    100.00% |          11      0.00%    100.00% |           3      0.00%    100.00% |           1      0.00%    100.00% |           0      0.00%    100.00% |           1      0.00%    100.00% |           0      0.00%    100.00% |           0      0.00%    100.00% (Unspecified)
system.caches.RequestType.RMW_Read.hit_latency_hist_seqr::total       466213                       (Unspecified)
system.caches.RequestType.RMW_Read.miss_latency_hist_seqr::bucket_size           64                       (Unspecified)
system.caches.RequestType.RMW_Read.miss_latency_hist_seqr::max_bucket          639                       (Unspecified)
system.caches.RequestType.RMW_Read.miss_latency_hist_seqr::samples          489                       (Unspecified)
system.caches.RequestType.RMW_Read.miss_latency_hist_seqr::mean    72.212679                       (Unspecified)
system.caches.RequestType.RMW_Read.miss_latency_hist_seqr::gmean    65.452725                       (Unspecified)
system.caches.RequestType.RMW_Read.miss_latency_hist_seqr::stdev    39.032770                       (Unspecified)
system.caches.RequestType.RMW_Read.miss_latency_hist_seqr |         262     53.58%     53.58% |         192     39.26%     92.84% |          29      5.93%     98.77% |           1      0.20%     98.98% |           2      0.41%     99.39% |           3      0.61%    100.00% |           0      0.00%    100.00% |           0      0.00%    100.00% |           0      0.00%    100.00% |           0      0.00%    100.00% (Unspecified)
system.caches.RequestType.RMW_Read.miss_latency_hist_seqr::total          489                       (Unspecified)
system.caches.RequestTypeMachineType.LD.Directory.miss_type_mach_latency_hist_seqr::bucket_size           64                       (Unspecified)
system.caches.RequestTypeMachineType.LD.Directory.miss_type_mach_latency_hist_seqr::max_bucket          639                       (Unspecified)
system.caches.RequestTypeMachineType.LD.Directory.miss_type_mach_latency_hist_seqr::samples        61020                       (Unspecified)
system.caches.RequestTypeMachineType.LD.Directory.miss_type_mach_latency_hist_seqr::mean    55.376155                       (Unspecified)
system.caches.RequestTypeMachineType.LD.Directory.miss_type_mach_latency_hist_seqr::gmean    47.255186                       (Unspecified)
system.caches.RequestTypeMachineType.LD.Directory.miss_type_mach_latency_hist_seqr::stdev    38.849762                       (Unspecified)
system.caches.RequestTypeMachineType.LD.Directory.miss_type_mach_latency_hist_seqr |       45654     74.82%     74.82% |       12267     20.10%     94.92% |        2274      3.73%     98.65% |         410      0.67%     99.32% |         272      0.45%     99.77% |         119      0.20%     99.96% |           8      0.01%     99.97% |          12      0.02%     99.99% |           4      0.01%    100.00% |           0      0.00%    100.00% (Unspecified)
system.caches.RequestTypeMachineType.LD.Directory.miss_type_mach_latency_hist_seqr::total        61020                       (Unspecified)
system.caches.RequestTypeMachineType.ST.Directory.miss_type_mach_latency_hist_seqr::bucket_size           64                       (Unspecified)
system.caches.RequestTypeMachineType.ST.Directory.miss_type_mach_latency_hist_seqr::max_bucket          639                       (Unspecified)
system.caches.RequestTypeMachineType.ST.Directory.miss_type_mach_latency_hist_seqr::samples       135960                       (Unspecified)
system.caches.RequestTypeMachineType.ST.Directory.miss_type_mach_latency_hist_seqr::mean    37.395984                       (Unspecified)
system.caches.RequestTypeMachineType.ST.Directory.miss_type_mach_latency_hist_seqr::gmean    33.193229                       (Unspecified)
system.caches.RequestTypeMachineType.ST.Directory.miss_type_mach_latency_hist_seqr::stdev    26.560070                       (Unspecified)
system.caches.RequestTypeMachineType.ST.Directory.miss_type_mach_latency_hist_seqr |      116910     85.99%     85.99% |       16964     12.48%     98.47% |        1465      1.08%     99.54% |         382      0.28%     99.82% |         157      0.12%     99.94% |          67      0.05%     99.99% |           3      0.00%     99.99% |           9      0.01%    100.00% |           3      0.00%    100.00% |           0      0.00%    100.00% (Unspecified)
system.caches.RequestTypeMachineType.ST.Directory.miss_type_mach_latency_hist_seqr::total       135960                       (Unspecified)
system.caches.RequestTypeMachineType.IFETCH.Directory.miss_type_mach_latency_hist_seqr::bucket_size           64                       (Unspecified)
system.caches.RequestTypeMachineType.IFETCH.Directory.miss_type_mach_latency_hist_seqr::max_bucket          639                       (Unspecified)
system.caches.RequestTypeMachineType.IFETCH.Directory.miss_type_mach_latency_hist_seqr::samples        13918                       (Unspecified)
system.caches.RequestTypeMachineType.IFETCH.Directory.miss_type_mach_latency_hist_seqr::mean    45.796020                       (Unspecified)
system.caches.RequestTypeMachineType.IFETCH.Directory.miss_type_mach_latency_hist_seqr::gmean    39.704806                       (Unspecified)
system.caches.RequestTypeMachineType.IFETCH.Directory.miss_type_mach_latency_hist_seqr::stdev    32.877776                       (Unspecified)
system.caches.RequestTypeMachineType.IFETCH.Directory.miss_type_mach_latency_hist_seqr |       11585     83.24%     83.24% |        1920     13.80%     97.03% |         312      2.24%     99.27% |          42      0.30%     99.58% |          36      0.26%     99.83% |          16      0.11%     99.95% |           3      0.02%     99.97% |           3      0.02%     99.99% |           1      0.01%    100.00% |           0      0.00%    100.00% (Unspecified)
system.caches.RequestTypeMachineType.IFETCH.Directory.miss_type_mach_latency_hist_seqr::total        13918                       (Unspecified)
system.caches.RequestTypeMachineType.RMW_Read.Directory.miss_type_mach_latency_hist_seqr::bucket_size           64                       (Unspecified)
system.caches.RequestTypeMachineType.RMW_Read.Directory.miss_type_mach_latency_hist_seqr::max_bucket          639                       (Unspecified)
system.caches.RequestTypeMachineType.RMW_Read.Directory.miss_type_mach_latency_hist_seqr::samples          489                       (Unspecified)
system.caches.RequestTypeMachineType.RMW_Read.Directory.miss_type_mach_latency_hist_seqr::mean    72.212679                       (Unspecified)
system.caches.RequestTypeMachineType.RMW_Read.Directory.miss_type_mach_latency_hist_seqr::gmean    65.452725                       (Unspecified)
system.caches.RequestTypeMachineType.RMW_Read.Directory.miss_type_mach_latency_hist_seqr::stdev    39.032770                       (Unspecified)
system.caches.RequestTypeMachineType.RMW_Read.Directory.miss_type_mach_latency_hist_seqr |         262     53.58%     53.58% |         192     39.26%     92.84% |          29      5.93%     98.77% |           1      0.20%     98.98% |           2      0.41%     99.39% |           3      0.61%    100.00% |           0      0.00%    100.00% |           0      0.00%    100.00% |           0      0.00%    100.00% |           0      0.00%    100.00% (Unspecified)
system.caches.RequestTypeMachineType.RMW_Read.Directory.miss_type_mach_latency_hist_seqr::total          489                       (Unspecified)
system.caches.controllers0.delayHistogram::samples       422262                       # delay_histogram (Unspecified)
system.caches.controllers0.delayHistogram::mean     0.066243                       # delay_histogram (Unspecified)
system.caches.controllers0.delayHistogram::stdev     0.646987                       # delay_histogram (Unspecified)
system.caches.controllers0.delayHistogram::0-3       417981     98.99%     98.99% # delay_histogram (Unspecified)
system.caches.controllers0.delayHistogram::4-7         4058      0.96%     99.95% # delay_histogram (Unspecified)
system.caches.controllers0.delayHistogram::8-11          142      0.03%     99.98% # delay_histogram (Unspecified)
system.caches.controllers0.delayHistogram::12-15           10      0.00%     99.98% # delay_histogram (Unspecified)
system.caches.controllers0.delayHistogram::16-19           51      0.01%    100.00% # delay_histogram (Unspecified)
system.caches.controllers0.delayHistogram::20-23            5      0.00%    100.00% # delay_histogram (Unspecified)
system.caches.controllers0.delayHistogram::24-27           15      0.00%    100.00% # delay_histogram (Unspecified)
system.caches.controllers0.delayHistogram::total       422262                       # delay_histogram (Unspecified)
system.caches.controllers0.cacheMemory.m_demand_hits     27888570                       # Number of cache demand hits (Unspecified)
system.caches.controllers0.cacheMemory.m_demand_misses       211388                       # Number of cache demand misses (Unspecified)
system.caches.controllers0.cacheMemory.m_demand_accesses     28099958                       # Number of cache demand accesses (Unspecified)
system.caches.controllers0.forwardToCache.m_buf_msgs     0.003768                       # Average number of messages in buffer (Unspecified)
system.caches.controllers0.forwardToCache.m_stall_time  5007.954405                       # Average number of cycles messages are stalled in this MB (Unspecified)
system.caches.controllers0.mandatoryQueue.m_buf_msgs     0.505919                       # Average number of messages in buffer (Unspecified)
system.caches.controllers0.mandatoryQueue.m_stall_time  1015.227106                       # Average number of cycles messages are stalled in this MB (Unspecified)
system.caches.controllers0.power_state.pwrStateResidencyTicks::UNDEFINED  55965591000                       # Cumulative time (in ticks) in various power states (Tick)
system.caches.controllers0.requestFromCache.m_buf_msgs     0.015090                       # Average number of messages in buffer (Unspecified)
system.caches.controllers0.requestFromCache.m_stall_time  1999.999893                       # Average number of cycles messages are stalled in this MB (Unspecified)
system.caches.controllers0.responseToCache.m_buf_msgs     0.003777                       # Average number of messages in buffer (Unspecified)
system.caches.controllers0.responseToCache.m_stall_time  5001.517700                       # Average number of cycles messages are stalled in this MB (Unspecified)
system.caches.controllers1.forwardFromDir.m_buf_msgs     0.003768                       # Average number of messages in buffer (Unspecified)
system.caches.controllers1.forwardFromDir.m_stall_time   999.828770                       # Average number of cycles messages are stalled in this MB (Unspecified)
system.caches.controllers1.power_state.pwrStateResidencyTicks::UNDEFINED  55965591000                       # Cumulative time (in ticks) in various power states (Tick)
system.caches.controllers1.requestToDir.m_buf_msgs     0.007545                       # Average number of messages in buffer (Unspecified)
system.caches.controllers1.requestToDir.m_stall_time  9962.054524                       # Average number of cycles messages are stalled in this MB (Unspecified)
system.caches.controllers1.requestToMemory.m_buf_msgs     0.007545                       # Average number of messages in buffer (Unspecified)
system.caches.controllers1.requestToMemory.m_stall_time  1000.003359                       # Average number of cycles messages are stalled in this MB (Unspecified)
system.caches.controllers1.responseFromDir.m_buf_msgs     0.003777                       # Average number of messages in buffer (Unspecified)
system.caches.controllers1.responseFromDir.m_stall_time   999.998767                       # Average number of cycles messages are stalled in this MB (Unspecified)
system.caches.controllers1.responseFromMemory.m_buf_msgs     0.008012                       # Average number of messages in buffer (Unspecified)
system.caches.controllers1.responseFromMemory.m_stall_time   999.998785                       # Average number of cycles messages are stalled in this MB (Unspecified)
system.caches.network.msg_count.Control        422774                       (Unspecified)
system.caches.network.msg_byte.Control        3382192                       (Unspecified)
system.caches.network.msg_count.Data           421751                       (Unspecified)
system.caches.network.msg_byte.Data          30366072                       (Unspecified)
system.caches.network.msg_count.Response_Data       422774                       (Unspecified)
system.caches.network.msg_byte.Response_Data     30439728                       (Unspecified)
system.caches.network.msg_count.Writeback_Control       421750                       (Unspecified)
system.caches.network.msg_byte.Writeback_Control      3374000                       (Unspecified)
system.caches.network.int_link_buffers2.m_buf_msgs     0.007545                       # Average number of messages in buffer (Unspecified)
system.caches.network.int_link_buffers2.m_stall_time  7962.055060                       # Average number of cycles messages are stalled in this MB (Unspecified)
system.caches.network.int_link_buffers8.m_buf_msgs     0.003768                       # Average number of messages in buffer (Unspecified)
system.caches.network.int_link_buffers8.m_stall_time  3008.297116                       # Average number of cycles messages are stalled in this MB (Unspecified)
system.caches.network.int_link_buffers9.m_buf_msgs     0.003777                       # Average number of messages in buffer (Unspecified)
system.caches.network.int_link_buffers9.m_stall_time  3001.520416                       # Average number of cycles messages are stalled in this MB (Unspecified)
system.caches.network.power_state.pwrStateResidencyTicks::UNDEFINED  55965591000                       # Cumulative time (in ticks) in various power states (Tick)
system.caches.network.routers0.percent_links_utilized     1.886258                       (Unspecified)
system.caches.network.routers0.msg_count.Control::2       211387                       (Unspecified)
system.caches.network.routers0.msg_bytes.Control::2      1691096                       (Unspecified)
system.caches.network.routers0.msg_count.Data::2       210876                       (Unspecified)
system.caches.network.routers0.msg_bytes.Data::2     15183072                       (Unspecified)
system.caches.network.routers0.msg_count.Response_Data::4       211387                       (Unspecified)
system.caches.network.routers0.msg_bytes.Response_Data::4     15219864                       (Unspecified)
system.caches.network.routers0.msg_count.Writeback_Control::3       210875                       (Unspecified)
system.caches.network.routers0.msg_bytes.Writeback_Control::3      1687000                       (Unspecified)
system.caches.network.routers0.port_buffers3.m_buf_msgs     0.003768                       # Average number of messages in buffer (Unspecified)
system.caches.network.routers0.port_buffers3.m_stall_time  4008.125779                       # Average number of cycles messages are stalled in this MB (Unspecified)
system.caches.network.routers0.port_buffers4.m_buf_msgs     0.003777                       # Average number of messages in buffer (Unspecified)
system.caches.network.routers0.port_buffers4.m_stall_time  4001.519076                       # Average number of cycles messages are stalled in this MB (Unspecified)
system.caches.network.routers0.port_buffers7.m_buf_msgs     0.023401                       # Average number of messages in buffer (Unspecified)
system.caches.network.routers0.port_buffers7.m_stall_time  6962.055274                       # Average number of cycles messages are stalled in this MB (Unspecified)
system.caches.network.routers0.power_state.pwrStateResidencyTicks::UNDEFINED  55965591000                       # Cumulative time (in ticks) in various power states (Tick)
system.caches.network.routers0.throttle00.link_utilization     1.888087                       (Unspecified)
system.caches.network.routers0.throttle00.msg_count.Response_Data::4       211387                       (Unspecified)
system.caches.network.routers0.throttle00.msg_bytes.Response_Data::4     15219864                       (Unspecified)
system.caches.network.routers0.throttle00.msg_count.Writeback_Control::3       210875                       (Unspecified)
system.caches.network.routers0.throttle00.msg_bytes.Writeback_Control::3      1687000                       (Unspecified)
system.caches.network.routers0.throttle01.link_utilization     1.884429                       (Unspecified)
system.caches.network.routers0.throttle01.msg_count.Control::2       211387                       (Unspecified)
system.caches.network.routers0.throttle01.msg_bytes.Control::2      1691096                       (Unspecified)
system.caches.network.routers0.throttle01.msg_count.Data::2       210876                       (Unspecified)
system.caches.network.routers0.throttle01.msg_bytes.Data::2     15183072                       (Unspecified)
system.caches.network.routers1.percent_links_utilized     1.886257                       (Unspecified)
system.caches.network.routers1.msg_count.Control::2       211387                       (Unspecified)
system.caches.network.routers1.msg_bytes.Control::2      1691096                       (Unspecified)
system.caches.network.routers1.msg_count.Data::2       210875                       (Unspecified)
system.caches.network.routers1.msg_bytes.Data::2     15183000                       (Unspecified)
system.caches.network.routers1.msg_count.Response_Data::4       211387                       (Unspecified)
system.caches.network.routers1.msg_bytes.Response_Data::4     15219864                       (Unspecified)
system.caches.network.routers1.msg_count.Writeback_Control::3       210875                       (Unspecified)
system.caches.network.routers1.msg_bytes.Writeback_Control::3      1687000                       (Unspecified)
system.caches.network.routers1.port_buffers2.m_buf_msgs     0.007545                       # Average number of messages in buffer (Unspecified)
system.caches.network.routers1.port_buffers2.m_stall_time  8962.054810                       # Average number of cycles messages are stalled in this MB (Unspecified)
system.caches.network.routers1.port_buffers6.m_buf_msgs     0.003994                       # Average number of messages in buffer (Unspecified)
system.caches.network.routers1.port_buffers6.m_stall_time  2008.468418                       # Average number of cycles messages are stalled in this MB (Unspecified)
system.caches.network.routers1.port_buffers7.m_buf_msgs     0.003801                       # Average number of messages in buffer (Unspecified)
system.caches.network.routers1.port_buffers7.m_stall_time  2001.521721                       # Average number of cycles messages are stalled in this MB (Unspecified)
system.caches.network.routers1.power_state.pwrStateResidencyTicks::UNDEFINED  55965591000                       # Cumulative time (in ticks) in various power states (Tick)
system.caches.network.routers1.throttle00.link_utilization     1.884428                       (Unspecified)
system.caches.network.routers1.throttle00.msg_count.Control::2       211387                       (Unspecified)
system.caches.network.routers1.throttle00.msg_bytes.Control::2      1691096                       (Unspecified)
system.caches.network.routers1.throttle00.msg_count.Data::2       210875                       (Unspecified)
system.caches.network.routers1.throttle00.msg_bytes.Data::2     15183000                       (Unspecified)
system.caches.network.routers1.throttle01.link_utilization     1.888087                       (Unspecified)
system.caches.network.routers1.throttle01.msg_count.Response_Data::4       211387                       (Unspecified)
system.caches.network.routers1.throttle01.msg_bytes.Response_Data::4     15219864                       (Unspecified)
system.caches.network.routers1.throttle01.msg_count.Writeback_Control::3       210875                       (Unspecified)
system.caches.network.routers1.throttle01.msg_bytes.Writeback_Control::3      1687000                       (Unspecified)
system.caches.power_state.pwrStateResidencyTicks::UNDEFINED  55965591000                       # Cumulative time (in ticks) in various power states (Tick)
system.caches.sequencers.power_state.pwrStateResidencyTicks::UNDEFINED  55965591000                       # Cumulative time (in ticks) in various power states (Tick)
system.caches.sys_port_proxy.power_state.pwrStateResidencyTicks::UNDEFINED  55965591000                       # Cumulative time (in ticks) in various power states (Tick)
system.clk_domain.clock                          1000                       # Clock period in ticks (Tick)
system.clk_domain.voltage_domain.voltage            1                       # Voltage in Volts (Volt)
system.cpu.numCycles                         55965592                       # Number of cpu cycles simulated (Cycle)
system.cpu.numWorkItemsStarted                      0                       # Number of work items this cpu started (Count)
system.cpu.numWorkItemsCompleted                    0                       # Number of work items this cpu completed (Count)
system.cpu.instsAdded                        95367274                       # Number of instructions added to the IQ (excludes non-spec) (Count)
system.cpu.nonSpecInstsAdded                   917800                       # Number of non-speculative instructions added to the IQ (Count)
system.cpu.instsIssued                       92284643                       # Number of instructions issued (Count)
system.cpu.squashedInstsIssued                   1991                       # Number of squashed instructions issued (Count)
system.cpu.squashedInstsExamined             13083099                       # Number of squashed instructions iterated over during squash; mainly for profiling (Count)
system.cpu.squashedOperandsExamined          15568495                       # Number of squashed operands that are examined and possibly removed from graph (Count)
system.cpu.squashedNonSpecRemoved                 160                       # Number of squashed non-spec instructions that were removed (Count)
system.cpu.numIssuedDist::samples            55780999                       # Number of insts issued each cycle (Count)
system.cpu.numIssuedDist::mean               1.654410                       # Number of insts issued each cycle (Count)
system.cpu.numIssuedDist::stdev              2.013335                       # Number of insts issued each cycle (Count)
system.cpu.numIssuedDist::underflows                0      0.00%      0.00% # Number of insts issued each cycle (Count)
system.cpu.numIssuedDist::0                  25269004     45.30%     45.30% # Number of insts issued each cycle (Count)
system.cpu.numIssuedDist::1                   8561793     15.35%     60.65% # Number of insts issued each cycle (Count)
system.cpu.numIssuedDist::2                   5326592      9.55%     70.20% # Number of insts issued each cycle (Count)
system.cpu.numIssuedDist::3                   5705718     10.23%     80.43% # Number of insts issued each cycle (Count)
system.cpu.numIssuedDist::4                   3396964      6.09%     86.52% # Number of insts issued each cycle (Count)
system.cpu.numIssuedDist::5                   3971051      7.12%     93.64% # Number of insts issued each cycle (Count)
system.cpu.numIssuedDist::6                   2545336      4.56%     98.20% # Number of insts issued each cycle (Count)
system.cpu.numIssuedDist::7                    798943      1.43%     99.63% # Number of insts issued each cycle (Count)
system.cpu.numIssuedDist::8                    205598      0.37%    100.00% # Number of insts issued each cycle (Count)
system.cpu.numIssuedDist::overflows                 0      0.00%    100.00% # Number of insts issued each cycle (Count)
system.cpu.numIssuedDist::min_value                 0                       # Number of insts issued each cycle (Count)
system.cpu.numIssuedDist::max_value                 8                       # Number of insts issued each cycle (Count)
system.cpu.numIssuedDist::total              55780999                       # Number of insts issued each cycle (Count)
system.cpu.statFuBusy::No_OpClass                   0      0.00%      0.00% # attempts to use FU when none available (Count)
system.cpu.statFuBusy::IntAlu                   55591     10.18%     10.18% # attempts to use FU when none available (Count)
system.cpu.statFuBusy::IntMult                      0      0.00%     10.18% # attempts to use FU when none available (Count)
system.cpu.statFuBusy::IntDiv                       0      0.00%     10.18% # attempts to use FU when none available (Count)
system.cpu.statFuBusy::FloatAdd                     0      0.00%     10.18% # attempts to use FU when none available (Count)
system.cpu.statFuBusy::FloatCmp                     0      0.00%     10.18% # attempts to use FU when none available (Count)
system.cpu.statFuBusy::FloatCvt                     0      0.00%     10.18% # attempts to use FU when none available (Count)
system.cpu.statFuBusy::FloatMult                    0      0.00%     10.18% # attempts to use FU when none available (Count)
system.cpu.statFuBusy::FloatMultAcc                 0      0.00%     10.18% # attempts to use FU when none available (Count)
system.cpu.statFuBusy::FloatDiv                     0      0.00%     10.18% # attempts to use FU when none available (Count)
system.cpu.statFuBusy::FloatMisc                    0      0.00%     10.18% # attempts to use FU when none available (Count)
system.cpu.statFuBusy::FloatSqrt                    0      0.00%     10.18% # attempts to use FU when none available (Count)
system.cpu.statFuBusy::SimdAdd                      4      0.00%     10.18% # attempts to use FU when none available (Count)
system.cpu.statFuBusy::SimdAddAcc                   0      0.00%     10.18% # attempts to use FU when none available (Count)
system.cpu.statFuBusy::SimdAlu                     51      0.01%     10.19% # attempts to use FU when none available (Count)
system.cpu.statFuBusy::SimdCmp                      0      0.00%     10.19% # attempts to use FU when none available (Count)
system.cpu.statFuBusy::SimdCvt                    921      0.17%     10.36% # attempts to use FU when none available (Count)
system.cpu.statFuBusy::SimdMisc                     4      0.00%     10.36% # attempts to use FU when none available (Count)
system.cpu.statFuBusy::SimdMult                     0      0.00%     10.36% # attempts to use FU when none available (Count)
system.cpu.statFuBusy::SimdMultAcc                  0      0.00%     10.36% # attempts to use FU when none available (Count)
system.cpu.statFuBusy::SimdShift                   25      0.00%     10.36% # attempts to use FU when none available (Count)
system.cpu.statFuBusy::SimdShiftAcc                 0      0.00%     10.36% # attempts to use FU when none available (Count)
system.cpu.statFuBusy::SimdDiv                      0      0.00%     10.36% # attempts to use FU when none available (Count)
system.cpu.statFuBusy::SimdSqrt                     0      0.00%     10.36% # attempts to use FU when none available (Count)
system.cpu.statFuBusy::SimdFloatAdd                 0      0.00%     10.36% # attempts to use FU when none available (Count)
system.cpu.statFuBusy::SimdFloatAlu                 0      0.00%     10.36% # attempts to use FU when none available (Count)
system.cpu.statFuBusy::SimdFloatCmp                 0      0.00%     10.36% # attempts to use FU when none available (Count)
system.cpu.statFuBusy::SimdFloatCvt                 0      0.00%     10.36% # attempts to use FU when none available (Count)
system.cpu.statFuBusy::SimdFloatDiv                 0      0.00%     10.36% # attempts to use FU when none available (Count)
system.cpu.statFuBusy::SimdFloatMisc                0      0.00%     10.36% # attempts to use FU when none available (Count)
system.cpu.statFuBusy::SimdFloatMult                0      0.00%     10.36% # attempts to use FU when none available (Count)
system.cpu.statFuBusy::SimdFloatMultAcc             0      0.00%     10.36% # attempts to use FU when none available (Count)
system.cpu.statFuBusy::SimdFloatSqrt                0      0.00%     10.36% # attempts to use FU when none available (Count)
system.cpu.statFuBusy::SimdReduceAdd                0      0.00%     10.36% # attempts to use FU when none available (Count)
system.cpu.statFuBusy::SimdReduceAlu                0      0.00%     10.36% # attempts to use FU when none available (Count)
system.cpu.statFuBusy::SimdReduceCmp                0      0.00%     10.36% # attempts to use FU when none available (Count)
system.cpu.statFuBusy::SimdFloatReduceAdd            0      0.00%     10.36% # attempts to use FU when none available (Count)
system.cpu.statFuBusy::SimdFloatReduceCmp            0      0.00%     10.36% # attempts to use FU when none available (Count)
system.cpu.statFuBusy::SimdAes                      0      0.00%     10.36% # attempts to use FU when none available (Count)
system.cpu.statFuBusy::SimdAesMix                   0      0.00%     10.36% # attempts to use FU when none available (Count)
system.cpu.statFuBusy::SimdSha1Hash                 0      0.00%     10.36% # attempts to use FU when none available (Count)
system.cpu.statFuBusy::SimdSha1Hash2                0      0.00%     10.36% # attempts to use FU when none available (Count)
system.cpu.statFuBusy::SimdSha256Hash               0      0.00%     10.36% # attempts to use FU when none available (Count)
system.cpu.statFuBusy::SimdSha256Hash2              0      0.00%     10.36% # attempts to use FU when none available (Count)
system.cpu.statFuBusy::SimdShaSigma2                0      0.00%     10.36% # attempts to use FU when none available (Count)
system.cpu.statFuBusy::SimdShaSigma3                0      0.00%     10.36% # attempts to use FU when none available (Count)
system.cpu.statFuBusy::SimdPredAlu                  0      0.00%     10.36% # attempts to use FU when none available (Count)
system.cpu.statFuBusy::MemRead                 483753     88.56%     98.92% # attempts to use FU when none available (Count)
system.cpu.statFuBusy::MemWrite                  5546      1.02%     99.94% # attempts to use FU when none available (Count)
system.cpu.statFuBusy::FloatMemRead               190      0.03%     99.97% # attempts to use FU when none available (Count)
system.cpu.statFuBusy::FloatMemWrite              161      0.03%    100.00% # attempts to use FU when none available (Count)
system.cpu.statFuBusy::IprAccess                    0      0.00%    100.00% # attempts to use FU when none available (Count)
system.cpu.statFuBusy::InstPrefetch                 0      0.00%    100.00% # attempts to use FU when none available (Count)
system.cpu.statIssuedInstType_0::No_OpClass      1594518      1.73%      1.73% # Number of instructions issued per FU type, per thread (Count)
system.cpu.statIssuedInstType_0::IntAlu      53767103     58.26%     59.99% # Number of instructions issued per FU type, per thread (Count)
system.cpu.statIssuedInstType_0::IntMult         1914      0.00%     59.99% # Number of instructions issued per FU type, per thread (Count)
system.cpu.statIssuedInstType_0::IntDiv         37233      0.04%     60.03% # Number of instructions issued per FU type, per thread (Count)
system.cpu.statIssuedInstType_0::FloatAdd      1842359      2.00%     62.03% # Number of instructions issued per FU type, per thread (Count)
system.cpu.statIssuedInstType_0::FloatCmp            0      0.00%     62.03% # Number of instructions issued per FU type, per thread (Count)
system.cpu.statIssuedInstType_0::FloatCvt       262384      0.28%     62.31% # Number of instructions issued per FU type, per thread (Count)
system.cpu.statIssuedInstType_0::FloatMult       262144      0.28%     62.60% # Number of instructions issued per FU type, per thread (Count)
system.cpu.statIssuedInstType_0::FloatMultAcc            0      0.00%     62.60% # Number of instructions issued per FU type, per thread (Count)
system.cpu.statIssuedInstType_0::FloatDiv            0      0.00%     62.60% # Number of instructions issued per FU type, per thread (Count)
system.cpu.statIssuedInstType_0::FloatMisc            0      0.00%     62.60% # Number of instructions issued per FU type, per thread (Count)
system.cpu.statIssuedInstType_0::FloatSqrt            0      0.00%     62.60% # Number of instructions issued per FU type, per thread (Count)
system.cpu.statIssuedInstType_0::SimdAdd         7104      0.01%     62.60% # Number of instructions issued per FU type, per thread (Count)
system.cpu.statIssuedInstType_0::SimdAddAcc            0      0.00%     62.60% # Number of instructions issued per FU type, per thread (Count)
system.cpu.statIssuedInstType_0::SimdAlu       275666      0.30%     62.90% # Number of instructions issued per FU type, per thread (Count)
system.cpu.statIssuedInstType_0::SimdCmp            8      0.00%     62.90% # Number of instructions issued per FU type, per thread (Count)
system.cpu.statIssuedInstType_0::SimdCvt        14868      0.02%     62.92% # Number of instructions issued per FU type, per thread (Count)
system.cpu.statIssuedInstType_0::SimdMisc       406714      0.44%     63.36% # Number of instructions issued per FU type, per thread (Count)
system.cpu.statIssuedInstType_0::SimdMult            0      0.00%     63.36% # Number of instructions issued per FU type, per thread (Count)
system.cpu.statIssuedInstType_0::SimdMultAcc            0      0.00%     63.36% # Number of instructions issued per FU type, per thread (Count)
system.cpu.statIssuedInstType_0::SimdShift         1041      0.00%     63.36% # Number of instructions issued per FU type, per thread (Count)
system.cpu.statIssuedInstType_0::SimdShiftAcc            0      0.00%     63.36% # Number of instructions issued per FU type, per thread (Count)
system.cpu.statIssuedInstType_0::SimdDiv            0      0.00%     63.36% # Number of instructions issued per FU type, per thread (Count)
system.cpu.statIssuedInstType_0::SimdSqrt            0      0.00%     63.36% # Number of instructions issued per FU type, per thread (Count)
system.cpu.statIssuedInstType_0::SimdFloatAdd       524292      0.57%     63.93% # Number of instructions issued per FU type, per thread (Count)
system.cpu.statIssuedInstType_0::SimdFloatAlu            0      0.00%     63.93% # Number of instructions issued per FU type, per thread (Count)
system.cpu.statIssuedInstType_0::SimdFloatCmp            0      0.00%     63.93% # Number of instructions issued per FU type, per thread (Count)
system.cpu.statIssuedInstType_0::SimdFloatCvt       393260      0.43%     64.36% # Number of instructions issued per FU type, per thread (Count)
system.cpu.statIssuedInstType_0::SimdFloatDiv       131079      0.14%     64.50% # Number of instructions issued per FU type, per thread (Count)
system.cpu.statIssuedInstType_0::SimdFloatMisc            0      0.00%     64.50% # Number of instructions issued per FU type, per thread (Count)
system.cpu.statIssuedInstType_0::SimdFloatMult       393216      0.43%     64.92% # Number of instructions issued per FU type, per thread (Count)
system.cpu.statIssuedInstType_0::SimdFloatMultAcc            0      0.00%     64.92% # Number of instructions issued per FU type, per thread (Count)
system.cpu.statIssuedInstType_0::SimdFloatSqrt            0      0.00%     64.92% # Number of instructions issued per FU type, per thread (Count)
system.cpu.statIssuedInstType_0::SimdReduceAdd            0      0.00%     64.92% # Number of instructions issued per FU type, per thread (Count)
system.cpu.statIssuedInstType_0::SimdReduceAlu            0      0.00%     64.92% # Number of instructions issued per FU type, per thread (Count)
system.cpu.statIssuedInstType_0::SimdReduceCmp            0      0.00%     64.92% # Number of instructions issued per FU type, per thread (Count)
system.cpu.statIssuedInstType_0::SimdFloatReduceAdd            0      0.00%     64.92% # Number of instructions issued per FU type, per thread (Count)
system.cpu.statIssuedInstType_0::SimdFloatReduceCmp            0      0.00%     64.92% # Number of instructions issued per FU type, per thread (Count)
system.cpu.statIssuedInstType_0::SimdAes            0      0.00%     64.92% # Number of instructions issued per FU type, per thread (Count)
system.cpu.statIssuedInstType_0::SimdAesMix            0      0.00%     64.92% # Number of instructions issued per FU type, per thread (Count)
system.cpu.statIssuedInstType_0::SimdSha1Hash            0      0.00%     64.92% # Number of instructions issued per FU type, per thread (Count)
system.cpu.statIssuedInstType_0::SimdSha1Hash2            0      0.00%     64.92% # Number of instructions issued per FU type, per thread (Count)
system.cpu.statIssuedInstType_0::SimdSha256Hash            0      0.00%     64.92% # Number of instructions issued per FU type, per thread (Count)
system.cpu.statIssuedInstType_0::SimdSha256Hash2            0      0.00%     64.92% # Number of instructions issued per FU type, per thread (Count)
system.cpu.statIssuedInstType_0::SimdShaSigma2            0      0.00%     64.92% # Number of instructions issued per FU type, per thread (Count)
system.cpu.statIssuedInstType_0::SimdShaSigma3            0      0.00%     64.92% # Number of instructions issued per FU type, per thread (Count)
system.cpu.statIssuedInstType_0::SimdPredAlu            0      0.00%     64.92% # Number of instructions issued per FU type, per thread (Count)
system.cpu.statIssuedInstType_0::MemRead     19073284     20.67%     85.59% # Number of instructions issued per FU type, per thread (Count)
system.cpu.statIssuedInstType_0::MemWrite      9595105     10.40%     95.99% # Number of instructions issued per FU type, per thread (Count)
system.cpu.statIssuedInstType_0::FloatMemRead      2378146      2.58%     98.57% # Number of instructions issued per FU type, per thread (Count)
system.cpu.statIssuedInstType_0::FloatMemWrite      1323205      1.43%    100.00% # Number of instructions issued per FU type, per thread (Count)
system.cpu.statIssuedInstType_0::IprAccess            0      0.00%    100.00% # Number of instructions issued per FU type, per thread (Count)
system.cpu.statIssuedInstType_0::InstPrefetch            0      0.00%    100.00% # Number of instructions issued per FU type, per thread (Count)
system.cpu.statIssuedInstType_0::total       92284643                       # Number of instructions issued per FU type, per thread (Count)
system.cpu.issueRate                         1.648953                       # Inst issue rate ((Count/Cycle))
system.cpu.fuBusy                              546246                       # FU busy when requested (Count)
system.cpu.fuBusyRate                        0.005919                       # FU busy rate (busy events/executed inst) ((Count/Count))
system.cpu.intInstQueueReads                222361914                       # Number of integer instruction queue reads (Count)
system.cpu.intInstQueueWrites               100062108                       # Number of integer instruction queue writes (Count)
system.cpu.intInstQueueWakeupAccesses        82360571                       # Number of integer instruction queue wakeup accesses (Count)
system.cpu.fpInstQueueReads                  18536603                       # Number of floating instruction queue reads (Count)
system.cpu.fpInstQueueWrites                  9308796                       # Number of floating instruction queue writes (Count)
system.cpu.fpInstQueueWakeupAccesses          9264780                       # Number of floating instruction queue wakeup accesses (Count)
system.cpu.vecInstQueueReads                        0                       # Number of vector instruction queue reads (Count)
system.cpu.vecInstQueueWrites                       0                       # Number of vector instruction queue writes (Count)
system.cpu.vecInstQueueWakeupAccesses               0                       # Number of vector instruction queue wakeup accesses (Count)
system.cpu.intAluAccesses                    81967458                       # Number of integer alu accesses (Count)
system.cpu.fpAluAccesses                      9268913                       # Number of floating point alu accesses (Count)
system.cpu.vecAluAccesses                           0                       # Number of vector alu accesses (Count)
system.cpu.idleCycles                               0                       # Number of cycles IEW is idle (Cycle)
system.cpu.squashCycles                        150203                       # Number of cycles IEW is squashing (Cycle)
system.cpu.blockCycles                        2071515                       # Number of cycles IEW is blocking (Cycle)
system.cpu.unblockCycles                        58674                       # Number of cycles IEW is unblocking (Cycle)
system.cpu.dispatchedInsts                   96285074                       # Number of instructions dispatched to IQ (Count)
system.cpu.dispSquashedInsts                      845                       # Number of squashed instructions skipped by dispatch (Count)
system.cpu.dispLoadInsts                     22266365                       # Number of dispatched load instructions (Count)
system.cpu.dispStoreInsts                    11312945                       # Number of dispatched store instructions (Count)
system.cpu.dispNonSpecInsts                    917786                       # Number of dispatched non-speculative instructions (Count)
system.cpu.iqFullEvents                         12466                       # Number of times the IQ has become full, causing a stall (Count)
system.cpu.lsqFullEvents                        41107                       # Number of times the LSQ has become full, causing a stall (Count)
system.cpu.memOrderViolationEvents               3232                       # Number of memory order violations (Count)
system.cpu.predictedTakenIncorrect              72647                       # Number of branches that were predicted taken incorrectly (Count)
system.cpu.predictedNotTakenIncorrect           75565                       # Number of branches that were predicted not taken incorrectly (Count)
system.cpu.branchMispredicts                   148212                       # Number of branch mispredicts detected at execute (Count)
system.cpu.numInsts                          91830221                       # Number of executed instructions (Count)
system.cpu.numLoadInsts                      21335461                       # Number of load instructions executed (Count)
system.cpu.numSquashedInsts                    454417                       # Number of squashed instructions skipped in execute (Count)
system.cpu.numSwp                                   0                       # Number of swp insts executed (Count)
system.cpu.numNop                                   0                       # Number of nop insts executed (Count)
system.cpu.numRefs                           32114329                       # Number of memory reference insts executed (Count)
system.cpu.numBranches                        6901896                       # Number of branches executed (Count)
system.cpu.numStoreInsts                     10778868                       # Number of stores executed (Count)
system.cpu.numRate                           1.640834                       # Inst execution rate ((Count/Cycle))
system.cpu.instsToCommit                     91708395                       # Cumulative count of insts sent to commit (Count)
system.cpu.writebackCount                    91625351                       # Cumulative count of insts written-back (Count)
system.cpu.producerInst                      66253043                       # Number of instructions producing a value (Count)
system.cpu.consumerInst                     108764956                       # Number of instructions consuming a value (Count)
system.cpu.wbRate                            1.637173                       # Insts written-back per cycle ((Count/Cycle))
system.cpu.wbFanout                          0.609140                       # Average fanout of values written-back ((Count/Count))
system.cpu.timesIdled                            8804                       # Number of times that the entire CPU went into an idle state and unscheduled itself (Count)
system.cpu.idleCycles                          184593                       # Total number of cycles that the CPU has spent unscheduled due to idling (Cycle)
system.cpu.committedInsts                    46698355                       # Number of Instructions Simulated (Count)
system.cpu.committedOps                      83201955                       # Number of Ops (including micro ops) Simulated (Count)
system.cpu.cpi                               1.198449                       # CPI: Cycles Per Instruction ((Cycle/Count))
system.cpu.totalCpi                          1.198449                       # CPI: Total CPI of All Threads ((Cycle/Count))
system.cpu.ipc                               0.834412                       # IPC: Instructions Per Cycle ((Count/Cycle))
system.cpu.totalIpc                          0.834412                       # IPC: Total IPC of All Threads ((Count/Cycle))
system.cpu.intRegfileReads                  144790910                       # Number of integer regfile reads (Count)
system.cpu.intRegfileWrites                  64429346                       # Number of integer regfile writes (Count)
system.cpu.fpRegfileReads                     9171683                       # Number of floating regfile reads (Count)
system.cpu.fpRegfileWrites                    7410256                       # Number of floating regfile writes (Count)
system.cpu.ccRegfileReads                    19356646                       # number of cc regfile reads (Count)
system.cpu.ccRegfileWrites                   19709591                       # number of cc regfile writes (Count)
system.cpu.miscRegfileReads                  47081593                       # number of misc regfile reads (Count)
system.cpu.miscRegfileWrites                  1835143                       # number of misc regfile writes (Count)
system.cpu.MemDepUnit__0.insertedLoads       22266365                       # Number of loads inserted to the mem dependence unit. (Count)
system.cpu.MemDepUnit__0.insertedStores      11312945                       # Number of stores inserted to the mem dependence unit. (Count)
system.cpu.MemDepUnit__0.conflictingLoads      7586161                       # Number of conflicting loads. (Count)
system.cpu.MemDepUnit__0.conflictingStores      2191060                       # Number of conflicting stores. (Count)
system.cpu.MemDepUnit__1.insertedLoads              0                       # Number of loads inserted to the mem dependence unit. (Count)
system.cpu.MemDepUnit__1.insertedStores             0                       # Number of stores inserted to the mem dependence unit. (Count)
system.cpu.MemDepUnit__1.conflictingLoads            0                       # Number of conflicting loads. (Count)
system.cpu.MemDepUnit__1.conflictingStores            0                       # Number of conflicting stores. (Count)
system.cpu.MemDepUnit__2.insertedLoads              0                       # Number of loads inserted to the mem dependence unit. (Count)
system.cpu.MemDepUnit__2.insertedStores             0                       # Number of stores inserted to the mem dependence unit. (Count)
system.cpu.MemDepUnit__2.conflictingLoads            0                       # Number of conflicting loads. (Count)
system.cpu.MemDepUnit__2.conflictingStores            0                       # Number of conflicting stores. (Count)
system.cpu.MemDepUnit__3.insertedLoads              0                       # Number of loads inserted to the mem dependence unit. (Count)
system.cpu.MemDepUnit__3.insertedStores             0                       # Number of stores inserted to the mem dependence unit. (Count)
system.cpu.MemDepUnit__3.conflictingLoads            0                       # Number of conflicting loads. (Count)
system.cpu.MemDepUnit__3.conflictingStores            0                       # Number of conflicting stores. (Count)
system.cpu.branchPred.lookups                 7508883                       # Number of BP lookups (Count)
system.cpu.branchPred.condPredicted           2779793                       # Number of conditional branches predicted (Count)
system.cpu.branchPred.condIncorrect            146246                       # Number of conditional branches incorrect (Count)
system.cpu.branchPred.BTBLookups              4268388                       # Number of BTB lookups (Count)
system.cpu.branchPred.BTBHits                 4266322                       # Number of BTB hits (Count)
system.cpu.branchPred.BTBHitRatio            0.999516                       # BTB Hit Ratio (Ratio)
[...]
system.mem_ctrl.rdPerTurnAround::10                 1      0.17%      0.17% # Reads before turning the bus around for writes (Count)
system.mem_ctrl.rdPerTurnAround::11                 4      0.70%      0.87% # Reads before turning the bus around for writes (Count)
system.mem_ctrl.rdPerTurnAround::12                 5      0.87%      1.75% # Reads before turning the bus around for writes (Count)
system.mem_ctrl.rdPerTurnAround::13                 6      1.05%      2.79% # Reads before turning the bus around for writes (Count)
system.mem_ctrl.rdPerTurnAround::14                13      2.27%      5.06% # Reads before turning the bus around for writes (Count)
system.mem_ctrl.rdPerTurnAround::15                12      2.09%      7.16% # Reads before turning the bus around for writes (Count)
system.mem_ctrl.rdPerTurnAround::16               522     91.10%     98.25% # Reads before turning the bus around for writes (Count)
system.mem_ctrl.rdPerTurnAround::17                10      1.75%    100.00% # Reads before turning the bus around for writes (Count)
system.mem_ctrl.rdPerTurnAround::total            573                       # Reads before turning the bus around for writes (Count)
system.mem_ctrl.wrPerTurnAround::samples          573                       # Writes before turning the bus around for reads (Count)
system.mem_ctrl.wrPerTurnAround::mean       16.027923                       # Writes before turning the bus around for reads (Count)
system.mem_ctrl.wrPerTurnAround::gmean      16.026082                       # Writes before turning the bus around for reads (Count)
system.mem_ctrl.wrPerTurnAround::stdev       0.256227                       # Writes before turning the bus around for reads (Count)
system.mem_ctrl.wrPerTurnAround::16               565     98.60%     98.60% # Writes before turning the bus around for reads (Count)
system.mem_ctrl.wrPerTurnAround::17                 2      0.35%     98.95% # Writes before turning the bus around for reads (Count)
system.mem_ctrl.wrPerTurnAround::18                 5      0.87%     99.83% # Writes before turning the bus around for reads (Count)
system.mem_ctrl.wrPerTurnAround::20                 1      0.17%    100.00% # Writes before turning the bus around for reads (Count)
system.mem_ctrl.wrPerTurnAround::total            573                       # Writes before turning the bus around for reads (Count)
system.mem_ctrl.bytesReadWrQ                    25600                       # Total number of bytes read from write queue (Byte)
system.mem_ctrl.bytesReadSys                   606784                       # Total read bytes from the system interface side (Byte)
system.mem_ctrl.bytesWrittenSys                606784                       # Total written bytes from the system interface side (Byte)
system.mem_ctrl.avgRdBWSys               782612845.35250103                       # Average system read bandwidth in Byte/s ((Byte/Second))
system.mem_ctrl.avgWrBWSys               782612845.35250103                       # Average system write bandwidth in Byte/s ((Byte/Second))
system.mem_ctrl.totGap                      775375000                       # Total gap between requests (Tick)
system.mem_ctrl.avgGap                       40890.99                       # Average gap between requests ((Tick/Count))
system.mem_ctrl.requestorReadBytes::caches.controllers1       581184                       # Per-requestor bytes read from memory (Byte)
system.mem_ctrl.requestorWriteBytes::caches.controllers1       587776                       # Per-requestor bytes write to memory (Byte)
system.mem_ctrl.requestorReadRate::caches.controllers1 749594689.235952138901                       # Per-requestor bytes read from memory rate ((Byte/Second))
system.mem_ctrl.requestorWriteRate::caches.controllers1 758096864.435963511467                       # Per-requestor bytes write to memory rate ((Byte/Second))
system.mem_ctrl.requestorReadAccesses::caches.controllers1         9481                       # Per-requestor read serviced memory accesses (Count)
system.mem_ctrl.requestorWriteAccesses::caches.controllers1         9481                       # Per-requestor write serviced memory accesses (Count)
system.mem_ctrl.requestorReadTotalLat::caches.controllers1    282752000                       # Per-requestor read total memory access latency (Tick)
system.mem_ctrl.requestorWriteTotalLat::caches.controllers1  19206602250                       # Per-requestor write total memory access latency (Tick)
system.mem_ctrl.requestorReadAvgLat::caches.controllers1     29823.01                       # Per-requestor read average memory access latency ((Tick/Count))
system.mem_ctrl.requestorWriteAvgLat::caches.controllers1   2025799.20                       # Per-requestor write average memory access latency ((Tick/Count))
system.mem_ctrl.dram.bytesRead::caches.controllers1       606784                       # Number of bytes read from this memory (Byte)
system.mem_ctrl.dram.bytesRead::total          606784                       # Number of bytes read from this memory (Byte)
system.mem_ctrl.dram.bytesWritten::caches.controllers1       606784                       # Number of bytes written to this memory (Byte)
system.mem_ctrl.dram.bytesWritten::total       606784                       # Number of bytes written to this memory (Byte)
system.mem_ctrl.dram.numReads::caches.controllers1         9481                       # Number of read requests responded to by this memory (Count)
system.mem_ctrl.dram.numReads::total             9481                       # Number of read requests responded to by this memory (Count)
system.mem_ctrl.dram.numWrites::caches.controllers1         9481                       # Number of write requests responded to by this memory (Count)
system.mem_ctrl.dram.numWrites::total            9481                       # Number of write requests responded to by this memory (Count)
system.mem_ctrl.dram.bwRead::caches.controllers1    782612845                       # Total read bandwidth from this memory ((Byte/Second))
system.mem_ctrl.dram.bwRead::total          782612845                       # Total read bandwidth from this memory ((Byte/Second))
system.mem_ctrl.dram.bwWrite::caches.controllers1    782612845                       # Write bandwidth from this memory ((Byte/Second))
system.mem_ctrl.dram.bwWrite::total         782612845                       # Write bandwidth from this memory ((Byte/Second))
system.mem_ctrl.dram.bwTotal::caches.controllers1   1565225691                       # Total bandwidth to/from this memory ((Byte/Second))
system.mem_ctrl.dram.bwTotal::total        1565225691                       # Total bandwidth to/from this memory ((Byte/Second))
system.mem_ctrl.dram.readBursts                  9081                       # Number of DRAM read bursts (Count)
system.mem_ctrl.dram.writeBursts                 9184                       # Number of DRAM write bursts (Count)
system.mem_ctrl.dram.perBankRdBursts::0           518                       # Per bank write bursts (Count)
system.mem_ctrl.dram.perBankRdBursts::1           550                       # Per bank write bursts (Count)
system.mem_ctrl.dram.perBankRdBursts::2           576                       # Per bank write bursts (Count)
system.mem_ctrl.dram.perBankRdBursts::3           606                       # Per bank write bursts (Count)
system.mem_ctrl.dram.perBankRdBursts::4           588                       # Per bank write bursts (Count)
system.mem_ctrl.dram.perBankRdBursts::5           542                       # Per bank write bursts (Count)
system.mem_ctrl.dram.perBankRdBursts::6           547                       # Per bank write bursts (Count)
system.mem_ctrl.dram.perBankRdBursts::7           626                       # Per bank write bursts (Count)
system.mem_ctrl.dram.perBankRdBursts::8           521                       # Per bank write bursts (Count)
system.mem_ctrl.dram.perBankRdBursts::9           585                       # Per bank write bursts (Count)
system.mem_ctrl.dram.perBankRdBursts::10          573                       # Per bank write bursts (Count)
system.mem_ctrl.dram.perBankRdBursts::11          446                       # Per bank write bursts (Count)
system.mem_ctrl.dram.perBankRdBursts::12          576                       # Per bank write bursts (Count)
system.mem_ctrl.dram.perBankRdBursts::13          625                       # Per bank write bursts (Count)
system.mem_ctrl.dram.perBankRdBursts::14          656                       # Per bank write bursts (Count)
system.mem_ctrl.dram.perBankRdBursts::15          546                       # Per bank write bursts (Count)
system.mem_ctrl.dram.perBankWrBursts::0           518                       # Per bank write bursts (Count)
system.mem_ctrl.dram.perBankWrBursts::1           552                       # Per bank write bursts (Count)
system.mem_ctrl.dram.perBankWrBursts::2           571                       # Per bank write bursts (Count)
system.mem_ctrl.dram.perBankWrBursts::3           604                       # Per bank write bursts (Count)
system.mem_ctrl.dram.perBankWrBursts::4           597                       # Per bank write bursts (Count)
system.mem_ctrl.dram.perBankWrBursts::5           545                       # Per bank write bursts (Count)
system.mem_ctrl.dram.perBankWrBursts::6           549                       # Per bank write bursts (Count)
system.mem_ctrl.dram.perBankWrBursts::7           641                       # Per bank write bursts (Count)
system.mem_ctrl.dram.perBankWrBursts::8           521                       # Per bank write bursts (Count)
system.mem_ctrl.dram.perBankWrBursts::9           591                       # Per bank write bursts (Count)
system.mem_ctrl.dram.perBankWrBursts::10          575                       # Per bank write bursts (Count)
system.mem_ctrl.dram.perBankWrBursts::11          479                       # Per bank write bursts (Count)
system.mem_ctrl.dram.perBankWrBursts::12          580                       # Per bank write bursts (Count)
system.mem_ctrl.dram.perBankWrBursts::13          637                       # Per bank write bursts (Count)
system.mem_ctrl.dram.perBankWrBursts::14          673                       # Per bank write bursts (Count)
system.mem_ctrl.dram.perBankWrBursts::15          551                       # Per bank write bursts (Count)
system.mem_ctrl.dram.totQLat                112483250                       # Total ticks spent queuing (Tick)
system.mem_ctrl.dram.totBusLat               45405000                       # Total ticks spent in databus transfers (Tick)
system.mem_ctrl.dram.totMemAccLat           282752000                       # Total ticks spent from burst creation until serviced by the DRAM (Tick)
system.mem_ctrl.dram.avgQLat                 12386.66                       # Average queueing delay per DRAM burst ((Tick/Count))
system.mem_ctrl.dram.avgBusLat                5000.00                       # Average bus latency per DRAM burst ((Tick/Count))
system.mem_ctrl.dram.avgMemAccLat            31136.66                       # Average memory access latency per DRAM burst ((Tick/Count))
system.mem_ctrl.dram.readRowHits                 8161                       # Number of row buffer hits during reads (Count)
system.mem_ctrl.dram.writeRowHits                8438                       # Number of row buffer hits during writes (Count)
system.mem_ctrl.dram.readRowHitRate             89.87                       # Row buffer hit rate for reads (Ratio)
system.mem_ctrl.dram.writeRowHitRate            91.88                       # Row buffer hit rate for writes (Ratio)
system.mem_ctrl.dram.bytesPerActivate::samples         1661                       # Bytes accessed per row activation (Byte)
system.mem_ctrl.dram.bytesPerActivate::mean   703.460566                       # Bytes accessed per row activation (Byte)
system.mem_ctrl.dram.bytesPerActivate::gmean   494.922198                       # Bytes accessed per row activation (Byte)
system.mem_ctrl.dram.bytesPerActivate::stdev   401.306034                       # Bytes accessed per row activation (Byte)
system.mem_ctrl.dram.bytesPerActivate::0-127          218     13.12%     13.12% # Bytes accessed per row activation (Byte)
system.mem_ctrl.dram.bytesPerActivate::128-255          192     11.56%     24.68% # Bytes accessed per row activation (Byte)
system.mem_ctrl.dram.bytesPerActivate::256-383           85      5.12%     29.80% # Bytes accessed per row activation (Byte)
system.mem_ctrl.dram.bytesPerActivate::384-511           65      3.91%     33.71% # Bytes accessed per row activation (Byte)
system.mem_ctrl.dram.bytesPerActivate::512-639           49      2.95%     36.66% # Bytes accessed per row activation (Byte)
system.mem_ctrl.dram.bytesPerActivate::640-767           55      3.31%     39.98% # Bytes accessed per row activation (Byte)
system.mem_ctrl.dram.bytesPerActivate::768-895           35      2.11%     42.08% # Bytes accessed per row activation (Byte)
system.mem_ctrl.dram.bytesPerActivate::896-1023           28      1.69%     43.77% # Bytes accessed per row activation (Byte)
system.mem_ctrl.dram.bytesPerActivate::1024-1151          934     56.23%    100.00% # Bytes accessed per row activation (Byte)
system.mem_ctrl.dram.bytesPerActivate::total         1661                       # Bytes accessed per row activation (Byte)
system.mem_ctrl.dram.bytesRead                 581184                       # Total number of bytes read from DRAM (Byte)
system.mem_ctrl.dram.bytesWritten              587776                       # Total number of bytes written to DRAM (Byte)
system.mem_ctrl.dram.avgRdBW               749.594689                       # Average DRAM read bandwidth in MiBytes/s ((Byte/Second))
system.mem_ctrl.dram.avgWrBW               758.096864                       # Average DRAM write bandwidth in MiBytes/s ((Byte/Second))
system.mem_ctrl.dram.peakBW                  12800.00                       # Theoretical peak bandwidth in MiByte/s ((Byte/Second))
system.mem_ctrl.dram.busUtil                    11.78                       # Data bus utilization in percentage (Ratio)
system.mem_ctrl.dram.busUtilRead                 5.86                       # Data bus utilization in percentage for reads (Ratio)
system.mem_ctrl.dram.busUtilWrite                5.92                       # Data bus utilization in percentage for writes (Ratio)
system.mem_ctrl.dram.pageHitRate                90.88                       # Row buffer hit rate, read and write combined (Ratio)
system.mem_ctrl.dram.power_state.pwrStateResidencyTicks::UNDEFINED    775331000                       # Cumulative time (in ticks) in various power states (Tick)
system.mem_ctrl.dram.rank0.actEnergy          6004740                       # Energy for activate commands per rank (pJ) (Joule)
system.mem_ctrl.dram.rank0.preEnergy          3176415                       # Energy for precharge commands per rank (pJ) (Joule)
system.mem_ctrl.dram.rank0.readEnergy        32508420                       # Energy for read commands per rank (pJ) (Joule)
system.mem_ctrl.dram.rank0.writeEnergy       23891940                       # Energy for write commands per rank (pJ) (Joule)
system.mem_ctrl.dram.rank0.refreshEnergy 61464000.000000                       # Energy for refresh commands per rank (pJ) (Joule)
system.mem_ctrl.dram.rank0.actBackEnergy    209506920                       # Energy for active background per rank (pJ) (Joule)
system.mem_ctrl.dram.rank0.preBackEnergy    121300320                       # Energy for precharge background per rank (pJ) (Joule)
system.mem_ctrl.dram.rank0.actPowerDownEnergy            0                       # Energy for active power-down per rank (pJ) (Joule)
system.mem_ctrl.dram.rank0.prePowerDownEnergy            0                       # Energy for precharge power-down per rank (pJ) (Joule)
system.mem_ctrl.dram.rank0.selfRefreshEnergy            0                       # Energy for self refresh per rank (pJ) (Joule)
system.mem_ctrl.dram.rank0.totalEnergy      457852755                       # Total energy per rank (pJ) (Joule)
system.mem_ctrl.dram.rank0.averagePower    590.525537                       # Core power per rank (mW) (Watt)
system.mem_ctrl.dram.rank0.totalIdleTime            0                       # Total Idle time Per DRAM Rank (Tick)
system.mem_ctrl.dram.rank0.pwrStateTime::IDLE    311603000                       # Time in different power states (Tick)
system.mem_ctrl.dram.rank0.pwrStateTime::REF     26000000                       # Time in different power states (Tick)
system.mem_ctrl.dram.rank0.pwrStateTime::SREF            0                       # Time in different power states (Tick)
system.mem_ctrl.dram.rank0.pwrStateTime::PRE_PDN            0                       # Time in different power states (Tick)
system.mem_ctrl.dram.rank0.pwrStateTime::ACT    437728000                       # Time in different power states (Tick)
system.mem_ctrl.dram.rank0.pwrStateTime::ACT_PDN            0                       # Time in different power states (Tick)
system.mem_ctrl.dram.rank1.actEnergy          5890500                       # Energy for activate commands per rank (pJ) (Joule)
system.mem_ctrl.dram.rank1.preEnergy          3127080                       # Energy for precharge commands per rank (pJ) (Joule)
system.mem_ctrl.dram.rank1.readEnergy        32329920                       # Energy for read commands per rank (pJ) (Joule)
system.mem_ctrl.dram.rank1.writeEnergy       24048540                       # Energy for write commands per rank (pJ) (Joule)
system.mem_ctrl.dram.rank1.refreshEnergy 61464000.000000                       # Energy for refresh commands per rank (pJ) (Joule)
system.mem_ctrl.dram.rank1.actBackEnergy    206666610                       # Energy for active background per rank (pJ) (Joule)
system.mem_ctrl.dram.rank1.preBackEnergy    123692160                       # Energy for precharge background per rank (pJ) (Joule)
system.mem_ctrl.dram.rank1.actPowerDownEnergy            0                       # Energy for active power-down per rank (pJ) (Joule)
system.mem_ctrl.dram.rank1.prePowerDownEnergy            0                       # Energy for precharge power-down per rank (pJ) (Joule)
system.mem_ctrl.dram.rank1.selfRefreshEnergy            0                       # Energy for self refresh per rank (pJ) (Joule)
system.mem_ctrl.dram.rank1.totalEnergy      457218810                       # Total energy per rank (pJ) (Joule)
system.mem_ctrl.dram.rank1.averagePower    589.707893                       # Core power per rank (mW) (Watt)
system.mem_ctrl.dram.rank1.totalIdleTime            0                       # Total Idle time Per DRAM Rank (Tick)
system.mem_ctrl.dram.rank1.pwrStateTime::IDLE    317971250                       # Time in different power states (Tick)
system.mem_ctrl.dram.rank1.pwrStateTime::REF     26000000                       # Time in different power states (Tick)
system.mem_ctrl.dram.rank1.pwrStateTime::SREF            0                       # Time in different power states (Tick)
system.mem_ctrl.dram.rank1.pwrStateTime::PRE_PDN            0                       # Time in different power states (Tick)
system.mem_ctrl.dram.rank1.pwrStateTime::ACT    431359750                       # Time in different power states (Tick)
system.mem_ctrl.dram.rank1.pwrStateTime::ACT_PDN            0                       # Time in different power states (Tick)
system.mem_ctrl.power_state.pwrStateResidencyTicks::UNDEFINED    775331000                       # Cumulative time (in ticks) in various power states (Tick)
system.workload.inst.arm                            0                       # number of arm instructions executed (Count)
system.workload.inst.quiesce                        0                       # number of quiesce instructions executed (Count)

---------- End Simulation Statistics   ----------
