
---------- Begin Simulation Statistics ----------
simSeconds                                   0.051484                       # Number of seconds simulated (Second)
simTicks                                  51484160000                       # Number of ticks simulated (Tick)
finalTick                                 51484160000                       # Number of ticks from beginning of simulation (restored from checkpoints and never reset) (Tick)
simFreq                                  1000000000000                       # The number of ticks per simulated second ((Tick/Second))
hostSeconds                                    187.57                       # Real time elapsed on the host (Second)
hostTickRate                                274474392                       # The number of ticks simulated per host second (ticks/s) ((Tick/Second))
hostMemory                                    9639676                       # Number of bytes of host memory used (Byte)
simInsts                                     46698355                       # Number of instructions simulated (Count)
simOps                                       83201955                       # Number of ops (including micro ops) simulated (Count)
hostInstRate                                   248960                       # Simulator instruction rate (inst/s) ((Count/Second))
hostOpRate                                     443569                       # Simulator op (including micro ops) rate (op/s) ((Count/Second))
system.caches.delayHistogram::bucket_size            4                       # delay histogram for all message (Unspecified)
system.caches.delayHistogram::max_bucket           39                       # delay histogram for all message (Unspecified)
system.caches.delayHistogram::samples           90312                       # delay histogram for all message (Unspecified)
system.caches.delayHistogram::mean           0.048255                       # delay histogram for all message (Unspecified)
system.caches.delayHistogram::stdev          0.561345                       # delay histogram for all message (Unspecified)
system.caches.delayHistogram             |       89636     99.25%     99.25% |         571      0.63%     99.88% |          92      0.10%     99.99% |           1      0.00%     99.99% |           9      0.01%    100.00% |           0      0.00%    100.00% |           3      0.00%    100.00% |           0      0.00%    100.00% |           0      0.00%    100.00% |           0      0.00%    100.00% # delay histogram for all message (Unspecified)
system.caches.delayHistogram::total             90312                       # delay histogram for all message (Unspecified)
system.caches.m_outstandReqHistSeqr::bucket_size            2                       (Unspecified)
system.caches.m_outstandReqHistSeqr::max_bucket           19                       (Unspecified)
system.caches.m_outstandReqHistSeqr::samples     27808245                       (Unspecified)
system.caches.m_outstandReqHistSeqr::mean     1.347667                       (Unspecified)
system.caches.m_outstandReqHistSeqr::gmean     1.236680                       (Unspecified)
system.caches.m_outstandReqHistSeqr::stdev     0.711341                       (Unspecified)
system.caches.m_outstandReqHistSeqr      |    20495808     73.70%     73.70% |     6816698     24.51%     98.22% |      452056      1.63%     99.84% |       15878      0.06%     99.90% |       10824      0.04%     99.94% |       11153      0.04%     99.98% |        2886      0.01%     99.99% |        1624      0.01%    100.00% |        1318      0.00%    100.00% |           0      0.00%    100.00% (Unspecified)
system.caches.m_outstandReqHistSeqr::total     27808245                       (Unspecified)
system.caches.m_latencyHistSeqr::bucket_size           64                       (Unspecified)
system.caches.m_latencyHistSeqr::max_bucket          639                       (Unspecified)
system.caches.m_latencyHistSeqr::samples     28097368                       (Unspecified)
system.caches.m_latencyHistSeqr::mean        1.131146                       (Unspecified)
system.caches.m_latencyHistSeqr::gmean       1.014097                       (Unspecified)
system.caches.m_latencyHistSeqr::stdev       3.419039                       (Unspecified)
system.caches.m_latencyHistSeqr          |    28068646     99.90%     99.90% |       25101      0.09%     99.99% |        2764      0.01%    100.00% |         382      0.00%    100.00% |         281      0.00%    100.00% |         164      0.00%    100.00% |          11      0.00%    100.00% |          19      0.00%    100.00% |           0      0.00%    100.00% |           0      0.00%    100.00% (Unspecified)
system.caches.m_latencyHistSeqr::total       28097368                       (Unspecified)
system.caches.m_hitLatencyHistSeqr::bucket_size           16                       (Unspecified)
system.caches.m_hitLatencyHistSeqr::max_bucket          159                       (Unspecified)
system.caches.m_hitLatencyHistSeqr::samples     28051956                       (Unspecified)
system.caches.m_hitLatencyHistSeqr::mean     1.010654                       (Unspecified)
system.caches.m_hitLatencyHistSeqr::gmean     1.007230                       (Unspecified)
system.caches.m_hitLatencyHistSeqr::stdev     0.129908                       (Unspecified)
system.caches.m_hitLatencyHistSeqr       |    28051614    100.00%    100.00% |         328      0.00%    100.00% |           9      0.00%    100.00% |           2      0.00%    100.00% |           1      0.00%    100.00% |           2      0.00%    100.00% |           0      0.00%    100.00% |           0      0.00%    100.00% |           0      0.00%    100.00% |           0      0.00%    100.00% (Unspecified)
system.caches.m_hitLatencyHistSeqr::total     28051956                       (Unspecified)
system.caches.m_missLatencyHistSeqr::bucket_size           64                       (Unspecified)
system.caches.m_missLatencyHistSeqr::max_bucket          639                       (Unspecified)
system.caches.m_missLatencyHistSeqr::samples        45412                       (Unspecified)
system.caches.m_missLatencyHistSeqr::mean    75.561415                       (Unspecified)
system.caches.m_missLatencyHistSeqr::gmean    67.415178                       (Unspecified)
system.caches.m_missLatencyHistSeqr::stdev    40.908714                       (Unspecified)
system.caches.m_missLatencyHistSeqr      |       16693     36.76%     36.76% |       25098     55.27%     92.03% |        2764      6.09%     98.11% |         382      0.84%     98.95% |         281      0.62%     99.57% |         164      0.36%     99.93% |          11      0.02%     99.96% |          19      0.04%    100.00% |           0      0.00%    100.00% |           0      0.00%    100.00% (Unspecified)
system.caches.m_missLatencyHistSeqr::total        45412                       (Unspecified)
system.caches.delayVCHist.vnet_1::bucket_size            1                       # delay histogram for vnet_1 (Unspecified)
system.caches.delayVCHist.vnet_1::max_bucket            9                       # delay histogram for vnet_1 (Unspecified)
system.caches.delayVCHist.vnet_1::samples        45412                       # delay histogram for vnet_1 (Unspecified)
system.caches.delayVCHist.vnet_1::mean       0.007927                       # delay histogram for vnet_1 (Unspecified)
system.caches.delayVCHist.vnet_1::stdev      0.212218                       # delay histogram for vnet_1 (Unspecified)
system.caches.delayVCHist.vnet_1         |       45335     99.83%     99.83% |           0      0.00%     99.83% |          22      0.05%     99.88% |           0      0.00%     99.88% |          22      0.05%     99.93% |           0      0.00%     99.93% |          18      0.04%     99.97% |           0      0.00%     99.97% |          15      0.03%    100.00% |           0      0.00%    100.00% # delay histogram for vnet_1 (Unspecified)
system.caches.delayVCHist.vnet_1::total         45412                       # delay histogram for vnet_1 (Unspecified)
system.caches.delayVCHist.vnet_2::bucket_size            4                       # delay histogram for vnet_2 (Unspecified)
system.caches.delayVCHist.vnet_2::max_bucket           39                       # delay histogram for vnet_2 (Unspecified)
system.caches.delayVCHist.vnet_2::samples        44900                       # delay histogram for vnet_2 (Unspecified)
system.caches.delayVCHist.vnet_2::mean       0.089042                       # delay histogram for vnet_2 (Unspecified)
system.caches.delayVCHist.vnet_2::stdev      0.764825                       # delay histogram for vnet_2 (Unspecified)
system.caches.delayVCHist.vnet_2         |       44279     98.62%     98.62% |         531      1.18%     99.80% |          77      0.17%     99.97% |           1      0.00%     99.97% |           9      0.02%     99.99% |           0      0.00%     99.99% |           3      0.01%    100.00% |           0      0.00%    100.00% |           0      0.00%    100.00% |           0      0.00%    100.00% # delay histogram for vnet_2 (Unspecified)
system.caches.delayVCHist.vnet_2::total         44900                       # delay histogram for vnet_2 (Unspecified)
system.caches.L1Cache_Controller.Load         8928882      0.00%      0.00% (Unspecified)
system.caches.L1Cache_Controller.Ifetch       8217130      0.00%      0.00% (Unspecified)
system.caches.L1Cache_Controller.Store       10951357      0.00%      0.00% (Unspecified)
system.caches.L1Cache_Controller.Data           45412      0.00%      0.00% (Unspecified)
system.caches.L1Cache_Controller.Replacement        44901      0.00%      0.00% (Unspecified)
system.caches.L1Cache_Controller.Writeback_Ack        44900      0.00%      0.00% (Unspecified)
system.caches.L1Cache_Controller.I.Load         19269      0.00%      0.00% (Unspecified)
system.caches.L1Cache_Controller.I.Ifetch         4846      0.00%      0.00% (Unspecified)
system.caches.L1Cache_Controller.I.Store        21298      0.00%      0.00% (Unspecified)
system.caches.L1Cache_Controller.M.Load       8909613      0.00%      0.00% (Unspecified)
system.caches.L1Cache_Controller.M.Ifetch      8212284      0.00%      0.00% (Unspecified)
system.caches.L1Cache_Controller.M.Store     10930059      0.00%      0.00% (Unspecified)
system.caches.L1Cache_Controller.M.Replacement        44901      0.00%      0.00% (Unspecified)
system.caches.L1Cache_Controller.MI.Writeback_Ack        44900      0.00%      0.00% (Unspecified)
system.caches.L1Cache_Controller.IS.Data        24114      0.00%      0.00% (Unspecified)
system.caches.L1Cache_Controller.IM.Data        21298      0.00%      0.00% (Unspecified)
system.caches.Directory_Controller.GETX         45412      0.00%      0.00% (Unspecified)
system.caches.Directory_Controller.PUTX         44900      0.00%      0.00% (Unspecified)
system.caches.Directory_Controller.Memory_Data        45412      0.00%      0.00% (Unspecified)
system.caches.Directory_Controller.Memory_Ack        44900      0.00%      0.00% (Unspecified)
system.caches.Directory_Controller.I.GETX        45412      0.00%      0.00% (Unspecified)
system.caches.Directory_Controller.M.PUTX        44900      0.00%      0.00% (Unspecified)
system.caches.Directory_Controller.IM.Memory_Data        45412      0.00%      0.00% (Unspecified)
system.caches.Directory_Controller.MI.Memory_Ack        44900      0.00%      0.00% (Unspecified)
system.caches.MachineType.Directory.miss_mach_latency_hist_seqr::bucket_size           64                       (Unspecified)
system.caches.MachineType.Directory.miss_mach_latency_hist_seqr::max_bucket          639                       (Unspecified)
system.caches.MachineType.Directory.miss_mach_latency_hist_seqr::samples        45412                       (Unspecified)
system.caches.MachineType.Directory.miss_mach_latency_hist_seqr::mean    75.561415                       (Unspecified)
system.caches.MachineType.Directory.miss_mach_latency_hist_seqr::gmean    67.415178                       (Unspecified)
system.caches.MachineType.Directory.miss_mach_latency_hist_seqr::stdev    40.908714                       (Unspecified)
system.caches.MachineType.Directory.miss_mach_latency_hist_seqr |       16693     36.76%     36.76% |       25098     55.27%     92.03% |        2764      6.09%     98.11% |         382      0.84%     98.95% |         281      0.62%     99.57% |         164      0.36%     99.93% |          11      0.02%     99.96% |          19      0.04%    100.00% |           0      0.00%    100.00% |           0      0.00%    100.00% (Unspecified)
system.caches.MachineType.Directory.miss_mach_latency_hist_seqr::total        45412                       (Unspecified)
system.caches.MachineType.Directory.miss_latency_hist_seqr.issue_to_initial_request::bucket_size            1                       (Unspecified)
system.caches.MachineType.Directory.miss_latency_hist_seqr.issue_to_initial_request::max_bucket            9                       (Unspecified)
system.caches.MachineType.Directory.miss_latency_hist_seqr.issue_to_initial_request::samples            1                       (Unspecified)
system.caches.MachineType.Directory.miss_latency_hist_seqr.issue_to_initial_request::stdev          nan                       (Unspecified)
system.caches.MachineType.Directory.miss_latency_hist_seqr.issue_to_initial_request |           1    100.00%    100.00% |           0      0.00%    100.00% |           0      0.00%    100.00% |           0      0.00%    100.00% |           0      0.00%    100.00% |           0      0.00%    100.00% |           0      0.00%    100.00% |           0      0.00%    100.00% |           0      0.00%    100.00% |           0      0.00%    100.00% (Unspecified)
system.caches.MachineType.Directory.miss_latency_hist_seqr.issue_to_initial_request::total            1                       (Unspecified)
system.caches.MachineType.Directory.miss_latency_hist_seqr.initial_to_forward::bucket_size            1                       (Unspecified)
system.caches.MachineType.Directory.miss_latency_hist_seqr.initial_to_forward::max_bucket            9                       (Unspecified)
system.caches.MachineType.Directory.miss_latency_hist_seqr.initial_to_forward::samples            1                       (Unspecified)
system.caches.MachineType.Directory.miss_latency_hist_seqr.initial_to_forward::stdev          nan                       (Unspecified)
system.caches.MachineType.Directory.miss_latency_hist_seqr.initial_to_forward |           1    100.00%    100.00% |           0      0.00%    100.00% |           0      0.00%    100.00% |           0      0.00%    100.00% |           0      0.00%    100.00% |           0      0.00%    100.00% |           0      0.00%    100.00% |           0      0.00%    100.00% |           0      0.00%    100.00% |           0      0.00%    100.00% (Unspecified)
system.caches.MachineType.Directory.miss_latency_hist_seqr.initial_to_forward::total            1                       (Unspecified)
system.caches.MachineType.Directory.miss_latency_hist_seqr.forward_to_first_response::bucket_size            1                       (Unspecified)
system.caches.MachineType.Directory.miss_latency_hist_seqr.forward_to_first_response::max_bucket            9                       (Unspecified)
system.caches.MachineType.Directory.miss_latency_hist_seqr.forward_to_first_response::samples            1                       (Unspecified)
system.caches.MachineType.Directory.miss_latency_hist_seqr.forward_to_first_response::stdev          nan                       (Unspecified)
system.caches.MachineType.Directory.miss_latency_hist_seqr.forward_to_first_response |           1    100.00%    100.00% |           0      0.00%    100.00% |           0      0.00%    100.00% |           0      0.00%    100.00% |           0      0.00%    100.00% |           0      0.00%    100.00% |           0      0.00%    100.00% |           0      0.00%    100.00% |           0      0.00%    100.00% |           0      0.00%    100.00% (Unspecified)
system.caches.MachineType.Directory.miss_latency_hist_seqr.forward_to_first_response::total            1                       (Unspecified)
system.caches.MachineType.Directory.miss_latency_hist_seqr.first_response_to_completion::bucket_size            8                       (Unspecified)
system.caches.MachineType.Directory.miss_latency_hist_seqr.first_response_to_completion::max_bucket           79                       (Unspecified)
system.caches.MachineType.Directory.miss_latency_hist_seqr.first_response_to_completion::samples            1                       (Unspecified)
system.caches.MachineType.Directory.miss_latency_hist_seqr.first_response_to_completion::mean           73                       (Unspecified)
system.caches.MachineType.Directory.miss_latency_hist_seqr.first_response_to_completion::gmean    73.000000                       (Unspecified)
system.caches.MachineType.Directory.miss_latency_hist_seqr.first_response_to_completion::stdev          nan                       (Unspecified)
system.caches.MachineType.Directory.miss_latency_hist_seqr.first_response_to_completion |           0      0.00%      0.00% |           0      0.00%      0.00% |           0      0.00%      0.00% |           0      0.00%      0.00% |           0      0.00%      0.00% |           0      0.00%      0.00% |           0      0.00%      0.00% |           0      0.00%      0.00% |           0      0.00%      0.00% |           1    100.00%    100.00% (Unspecified)
system.caches.MachineType.Directory.miss_latency_hist_seqr.first_response_to_completion::total            1                       (Unspecified)
system.caches.MachineType.Directory.incomplete_times_seqr        45411                       (Unspecified)
system.caches.RequestType.LD.latency_hist_seqr::bucket_size           64                       (Unspecified)
system.caches.RequestType.LD.latency_hist_seqr::max_bucket          639                       (Unspecified)
system.caches.RequestType.LD.latency_hist_seqr::samples      8928882                       (Unspecified)
system.caches.RequestType.LD.latency_hist_seqr::mean     1.156294                       (Unspecified)
system.caches.RequestType.LD.latency_hist_seqr::gmean     1.009157                       (Unspecified)
system.caches.RequestType.LD.latency_hist_seqr::stdev     3.854282                       (Unspecified)
system.caches.RequestType.LD.latency_hist_seqr |     8918939     99.89%     99.89% |        8226      0.09%     99.98% |        1358      0.02%    100.00% |         183      0.00%    100.00% |         117      0.00%    100.00% |          48      0.00%    100.00% |           7      0.00%    100.00% |           4      0.00%    100.00% |           0      0.00%    100.00% |           0      0.00%    100.00% (Unspecified)
system.caches.RequestType.LD.latency_hist_seqr::total      8928882                       (Unspecified)
system.caches.RequestType.LD.hit_latency_hist_seqr::bucket_size            4                       (Unspecified)
system.caches.RequestType.LD.hit_latency_hist_seqr::max_bucket           39                       (Unspecified)
system.caches.RequestType.LD.hit_latency_hist_seqr::samples      8909613                       (Unspecified)
system.caches.RequestType.LD.hit_latency_hist_seqr::mean     1.000588                       (Unspecified)
system.caches.RequestType.LD.hit_latency_hist_seqr::gmean     1.000109                       (Unspecified)
system.caches.RequestType.LD.hit_latency_hist_seqr::stdev     0.097559                       (Unspecified)
system.caches.RequestType.LD.hit_latency_hist_seqr |     8909261    100.00%    100.00% |          31      0.00%    100.00% |          24      0.00%    100.00% |         106      0.00%    100.00% |         120      0.00%    100.00% |          61      0.00%    100.00% |           8      0.00%    100.00% |           2      0.00%    100.00% |           0      0.00%    100.00% |           0      0.00%    100.00% (Unspecified)
system.caches.RequestType.LD.hit_latency_hist_seqr::total      8909613                       (Unspecified)
system.caches.RequestType.LD.miss_latency_hist_seqr::bucket_size           64                       (Unspecified)
system.caches.RequestType.LD.miss_latency_hist_seqr::max_bucket          639                       (Unspecified)
system.caches.RequestType.LD.miss_latency_hist_seqr::samples        19269                       (Unspecified)
system.caches.RequestType.LD.miss_latency_hist_seqr::mean    73.151643                       (Unspecified)
system.caches.RequestType.LD.miss_latency_hist_seqr::gmean    64.946602                       (Unspecified)
system.caches.RequestType.LD.miss_latency_hist_seqr::stdev    41.047449                       (Unspecified)
system.caches.RequestType.LD.miss_latency_hist_seqr |        9326     48.40%     48.40% |        8226     42.69%     91.09% |        1358      7.05%     98.14% |         183      0.95%     99.09% |         117      0.61%     99.69% |          48      0.25%     99.94% |           7      0.04%     99.98% |           4      0.02%    100.00% |           0      0.00%    100.00% |           0      0.00%    100.00% (Unspecified)
system.caches.RequestType.LD.miss_latency_hist_seqr::total        19269                       (Unspecified)
system.caches.RequestType.ST.latency_hist_seqr::bucket_size           64                       (Unspecified)
system.caches.RequestType.ST.latency_hist_seqr::max_bucket          639                       (Unspecified)
system.caches.RequestType.ST.latency_hist_seqr::samples     10484971                       (Unspecified)
system.caches.RequestType.ST.latency_hist_seqr::mean     1.177955                       (Unspecified)
system.caches.RequestType.ST.latency_hist_seqr::gmean     1.019457                       (Unspecified)
system.caches.RequestType.ST.latency_hist_seqr::stdev     4.040928                       (Unspecified)
system.caches.RequestType.ST.latency_hist_seqr |    10467519     99.83%     99.83% |       15832      0.15%     99.98% |        1182      0.01%    100.00% |         182      0.00%    100.00% |         139      0.00%    100.00% |         102      0.00%    100.00% |           3      0.00%    100.00% |          12      0.00%    100.00% |           0      0.00%    100.00% |           0      0.00%    100.00% (Unspecified)
system.caches.RequestType.ST.latency_hist_seqr::total     10484971                       (Unspecified)
system.caches.RequestType.ST.hit_latency_hist_seqr::bucket_size           16                       (Unspecified)
system.caches.RequestType.ST.hit_latency_hist_seqr::max_bucket          159                       (Unspecified)
system.caches.RequestType.ST.hit_latency_hist_seqr::samples     10464136                       (Unspecified)
system.caches.RequestType.ST.hit_latency_hist_seqr::mean     1.015597                       (Unspecified)
system.caches.RequestType.ST.hit_latency_hist_seqr::gmean     1.010743                       (Unspecified)
system.caches.RequestType.ST.hit_latency_hist_seqr::stdev     0.146350                       (Unspecified)
system.caches.RequestType.ST.hit_latency_hist_seqr |    10464054    100.00%    100.00% |          70      0.00%    100.00% |           7      0.00%    100.00% |           2      0.00%    100.00% |           1      0.00%    100.00% |           2      0.00%    100.00% |           0      0.00%    100.00% |           0      0.00%    100.00% |           0      0.00%    100.00% |           0      0.00%    100.00% (Unspecified)
system.caches.RequestType.ST.hit_latency_hist_seqr::total     10464136                       (Unspecified)
system.caches.RequestType.ST.miss_latency_hist_seqr::bucket_size           64                       (Unspecified)
system.caches.RequestType.ST.miss_latency_hist_seqr::max_bucket          639                       (Unspecified)
system.caches.RequestType.ST.miss_latency_hist_seqr::samples        20835                       (Unspecified)
system.caches.RequestType.ST.miss_latency_hist_seqr::mean    82.720518                       (Unspecified)
system.caches.RequestType.ST.miss_latency_hist_seqr::gmean    76.002485                       (Unspecified)
system.caches.RequestType.ST.miss_latency_hist_seqr::stdev    39.297770                       (Unspecified)
system.caches.RequestType.ST.miss_latency_hist_seqr |        3386     16.25%     16.25% |       15829     75.97%     92.22% |        1182      5.67%     97.90% |         182      0.87%     98.77% |         139      0.67%     99.44% |         102      0.49%     99.93% |           3      0.01%     99.94% |          12      0.06%    100.00% |           0      0.00%    100.00% |           0      0.00%    100.00% (Unspecified)
system.caches.RequestType.ST.miss_latency_hist_seqr::total        20835                       (Unspecified)
system.caches.RequestType.IFETCH.latency_hist_seqr::bucket_size           64                       (Unspecified)
system.caches.RequestType.IFETCH.latency_hist_seqr::max_bucket          639                       (Unspecified)
system.caches.RequestType.IFETCH.latency_hist_seqr::samples      8217129                       (Unspecified)
system.caches.RequestType.IFETCH.latency_hist_seqr::mean     1.031771                       (Unspecified)
system.caches.RequestType.IFETCH.latency_hist_seqr::gmean     1.002305                       (Unspecified)
system.caches.RequestType.IFETCH.latency_hist_seqr::stdev     1.604752                       (Unspecified)
system.caches.RequestType.IFETCH.latency_hist_seqr |     8216031     99.99%     99.99% |         845      0.01%    100.00% |         202      0.00%    100.00% |          15      0.00%    100.00% |          23      0.00%    100.00% |           9      0.00%    100.00% |           1      0.00%    100.00% |           3      0.00%    100.00% |           0      0.00%    100.00% |           0      0.00%    100.00% (Unspecified)
system.caches.RequestType.IFETCH.latency_hist_seqr::total      8217129                       (Unspecified)
system.caches.RequestType.IFETCH.hit_latency_hist_seqr::bucket_size            4                       (Unspecified)
system.caches.RequestType.IFETCH.hit_latency_hist_seqr::max_bucket           39                       (Unspecified)
system.caches.RequestType.IFETCH.hit_latency_hist_seqr::samples      8212284                       (Unspecified)
system.caches.RequestType.IFETCH.hit_latency_hist_seqr::mean     1.000193                       (Unspecified)
system.caches.RequestType.IFETCH.hit_latency_hist_seqr::gmean     1.000035                       (Unspecified)
system.caches.RequestType.IFETCH.hit_latency_hist_seqr::stdev     0.056816                       (Unspecified)
system.caches.RequestType.IFETCH.hit_latency_hist_seqr |     8212177    100.00%    100.00% |          12      0.00%    100.00% |          12      0.00%    100.00% |          21      0.00%    100.00% |          30      0.00%    100.00% |          29      0.00%    100.00% |           3      0.00%    100.00% |           0      0.00%    100.00% |           0      0.00%    100.00% |           0      0.00%    100.00% (Unspecified)
system.caches.RequestType.IFETCH.hit_latency_hist_seqr::total      8212284                       (Unspecified)
system.caches.RequestType.IFETCH.miss_latency_hist_seqr::bucket_size           64                       (Unspecified)
system.caches.RequestType.IFETCH.miss_latency_hist_seqr::max_bucket          639                       (Unspecified)
system.caches.RequestType.IFETCH.miss_latency_hist_seqr::samples         4845                       (Unspecified)
system.caches.RequestType.IFETCH.miss_latency_hist_seqr::mean    54.557069                       (Unspecified)
system.caches.RequestType.IFETCH.miss_latency_hist_seqr::gmean    46.741343                       (Unspecified)
system.caches.RequestType.IFETCH.miss_latency_hist_seqr::stdev    38.675345                       (Unspecified)
system.caches.RequestType.IFETCH.miss_latency_hist_seqr |        3747     77.34%     77.34% |         845     17.44%     94.78% |         202      4.17%     98.95% |          15      0.31%     99.26% |          23      0.47%     99.73% |           9      0.19%     99.92% |           1      0.02%     99.94% |           3      0.06%    100.00% |           0      0.00%    100.00% |           0      0.00%    100.00% (Unspecified)
system.caches.RequestType.IFETCH.miss_latency_hist_seqr::total         4845                       (Unspecified)
system.caches.RequestType.RMW_Read.latency_hist_seqr::bucket_size           64                       (Unspecified)
system.caches.RequestType.RMW_Read.latency_hist_seqr::max_bucket          639                       (Unspecified)
system.caches.RequestType.RMW_Read.latency_hist_seqr::samples       466386                       (Unspecified)
system.caches.RequestType.RMW_Read.latency_hist_seqr::mean     1.348197                       (Unspecified)
system.caches.RequestType.RMW_Read.latency_hist_seqr::gmean     1.215358                       (Unspecified)
system.caches.RequestType.RMW_Read.latency_hist_seqr::stdev     2.663098                       (Unspecified)
system.caches.RequestType.RMW_Read.latency_hist_seqr |      466157     99.95%     99.95% |         198      0.04%     99.99% |          22      0.00%    100.00% |           2      0.00%    100.00% |           2      0.00%    100.00% |           5      0.00%    100.00% |           0      0.00%    100.00% |           0      0.00%    100.00% |           0      0.00%    100.00% |           0      0.00%    100.00% (Unspecified)
system.caches.RequestType.RMW_Read.latency_hist_seqr::total       466386                       (Unspecified)
system.caches.RequestType.RMW_Read.hit_latency_hist_seqr::bucket_size            8                       (Unspecified)
system.caches.RequestType.RMW_Read.hit_latency_hist_seqr::max_bucket           79                       (Unspecified)
system.caches.RequestType.RMW_Read.hit_latency_hist_seqr::samples       465923                       (Unspecified)
system.caches.RequestType.RMW_Read.hit_latency_hist_seqr::mean     1.276509                       (Unspecified)
system.caches.RequestType.RMW_Read.hit_latency_hist_seqr::gmean     1.210530                       (Unspecified)
system.caches.RequestType.RMW_Read.hit_latency_hist_seqr::stdev     0.470138                       (Unspecified)
system.caches.RequestType.RMW_Read.hit_latency_hist_seqr |      465888     99.99%     99.99% |          28      0.01%    100.00% |           0      0.00%    100.00% |           5      0.00%    100.00% |           1      0.00%    100.00% |           1      0.00%    100.00% |           0      0.00%    100.00% |           0      0.00%    100.00% |           0      0.00%    100.00% |           0      0.00%    100.00% (Unspecified)
system.caches.RequestType.RMW_Read.hit_latency_hist_seqr::total       465923                       (Unspecified)
system.caches.RequestType.RMW_Read.miss_latency_hist_seqr::bucket_size           64                       (Unspecified)
system.caches.RequestType.RMW_Read.miss_latency_hist_seqr::max_bucket          639                       (Unspecified)
system.caches.RequestType.RMW_Read.miss_latency_hist_seqr::samples          463                       (Unspecified)
system.caches.RequestType.RMW_Read.miss_latency_hist_seqr::mean    73.488121                       (Unspecified)
system.caches.RequestType.RMW_Read.miss_latency_hist_seqr::gmean    66.724770                       (Unspecified)
system.caches.RequestType.RMW_Read.miss_latency_hist_seqr::stdev    41.423211                       (Unspecified)
system.caches.RequestType.RMW_Read.miss_latency_hist_seqr |         234     50.54%     50.54% |         198     42.76%     93.30% |          22      4.75%     98.06% |           2      0.43%     98.49% |           2      0.43%     98.92% |           5      1.08%    100.00% |           0      0.00%    100.00% |           0      0.00%    100.00% |           0      0.00%    100.00% |           0      0.00%    100.00% (Unspecified)
system.caches.RequestType.RMW_Read.miss_latency_hist_seqr::total          463                       (Unspecified)
system.caches.RequestTypeMachineType.LD.Directory.miss_type_mach_latency_hist_seqr::bucket_size           64                       (Unspecified)
system.caches.RequestTypeMachineType.LD.Directory.miss_type_mach_latency_hist_seqr::max_bucket          639                       (Unspecified)
system.caches.RequestTypeMachineType.LD.Directory.miss_type_mach_latency_hist_seqr::samples        19269                       (Unspecified)
system.caches.RequestTypeMachineType.LD.Directory.miss_type_mach_latency_hist_seqr::mean    73.151643                       (Unspecified)
system.caches.RequestTypeMachineType.LD.Directory.miss_type_mach_latency_hist_seqr::gmean    64.946602                       (Unspecified)
system.caches.RequestTypeMachineType.LD.Directory.miss_type_mach_latency_hist_seqr::stdev    41.047449                       (Unspecified)
system.caches.RequestTypeMachineType.LD.Directory.miss_type_mach_latency_hist_seqr |        9326     48.40%     48.40% |        8226     42.69%     91.09% |        1358      7.05%     98.14% |         183      0.95%     99.09% |         117      0.61%     99.69% |          48      0.25%     99.94% |           7      0.04%     99.98% |           4      0.02%    100.00% |           0      0.00%    100.00% |           0      0.00%    100.00% (Unspecified)
system.caches.RequestTypeMachineType.LD.Directory.miss_type_mach_latency_hist_seqr::total        19269                       (Unspecified)
system.caches.RequestTypeMachineType.ST.Directory.miss_type_mach_latency_hist_seqr::bucket_size           64                       (Unspecified)
system.caches.RequestTypeMachineType.ST.Directory.miss_type_mach_latency_hist_seqr::max_bucket          639                       (Unspecified)
system.caches.RequestTypeMachineType.ST.Directory.miss_type_mach_latency_hist_seqr::samples        20835                       (Unspecified)
system.caches.RequestTypeMachineType.ST.Directory.miss_type_mach_latency_hist_seqr::mean    82.720518                       (Unspecified)
system.caches.RequestTypeMachineType.ST.Directory.miss_type_mach_latency_hist_seqr::gmean    76.002485                       (Unspecified)
system.caches.RequestTypeMachineType.ST.Directory.miss_type_mach_latency_hist_seqr::stdev    39.297770                       (Unspecified)
system.caches.RequestTypeMachineType.ST.Directory.miss_type_mach_latency_hist_seqr |        3386     16.25%     16.25% |       15829     75.97%     92.22% |        1182      5.67%     97.90% |         182      0.87%     98.77% |         139      0.67%     99.44% |         102      0.49%     99.93% |           3      0.01%     99.94% |          12      0.06%    100.00% |           0      0.00%    100.00% |           0      0.00%    100.00% (Unspecified)
system.caches.RequestTypeMachineType.ST.Directory.miss_type_mach_latency_hist_seqr::total        20835                       (Unspecified)
system.caches.RequestTypeMachineType.IFETCH.Directory.miss_type_mach_latency_hist_seqr::bucket_size           64                       (Unspecified)
system.caches.RequestTypeMachineType.IFETCH.Directory.miss_type_mach_latency_hist_seqr::max_bucket          639                       (Unspecified)
system.caches.RequestTypeMachineType.IFETCH.Directory.miss_type_mach_latency_hist_seqr::samples         4845                       (Unspecified)
system.caches.RequestTypeMachineType.IFETCH.Directory.miss_type_mach_latency_hist_seqr::mean    54.557069                       (Unspecified)
system.caches.RequestTypeMachineType.IFETCH.Directory.miss_type_mach_latency_hist_seqr::gmean    46.741343                       (Unspecified)
system.caches.RequestTypeMachineType.IFETCH.Directory.miss_type_mach_latency_hist_seqr::stdev    38.675345                       (Unspecified)
system.caches.RequestTypeMachineType.IFETCH.Directory.miss_type_mach_latency_hist_seqr |        3747     77.34%     77.34% |         845     17.44%     94.78% |         202      4.17%     98.95% |          15      0.31%     99.26% |          23      0.47%     99.73% |           9      0.19%     99.92% |           1      0.02%     99.94% |           3      0.06%    100.00% |           0      0.00%    100.00% |           0      0.00%    100.00% (Unspecified)
system.caches.RequestTypeMachineType.IFETCH.Directory.miss_type_mach_latency_hist_seqr::total         4845                       (Unspecified)
system.caches.RequestTypeMachineType.RMW_Read.Directory.miss_type_mach_latency_hist_seqr::bucket_size           64                       (Unspecified)
system.caches.RequestTypeMachineType.RMW_Read.Directory.miss_type_mach_latency_hist_seqr::max_bucket          639                       (Unspecified)
system.caches.RequestTypeMachineType.RMW_Read.Directory.miss_type_mach_latency_hist_seqr::samples          463                       (Unspecified)
system.caches.RequestTypeMachineType.RMW_Read.Directory.miss_type_mach_latency_hist_seqr::mean    73.488121                       (Unspecified)
system.caches.RequestTypeMachineType.RMW_Read.Directory.miss_type_mach_latency_hist_seqr::gmean    66.724770                       (Unspecified)
system.caches.RequestTypeMachineType.RMW_Read.Directory.miss_type_mach_latency_hist_seqr::stdev    41.423211                       (Unspecified)
system.caches.RequestTypeMachineType.RMW_Read.Directory.miss_type_mach_latency_hist_seqr |         234     50.54%     50.54% |         198     42.76%     93.30% |          22      4.75%     98.06% |           2      0.43%     98.49% |           2      0.43%     98.92% |           5      1.08%    100.00% |           0      0.00%    100.00% |           0      0.00%    100.00% |           0      0.00%    100.00% |           0      0.00%    100.00% (Unspecified)
system.caches.RequestTypeMachineType.RMW_Read.Directory.miss_type_mach_latency_hist_seqr::total          463                       (Unspecified)
system.caches.controllers0.delayHistogram::samples        90312                       # delay_histogram (Unspecified)
system.caches.controllers0.delayHistogram::mean     0.048255                       # delay_histogram (Unspecified)
system.caches.controllers0.delayHistogram::stdev     0.561345                       # delay_histogram (Unspecified)
system.caches.controllers0.delayHistogram::0-3        89636     99.25%     99.25% # delay_histogram (Unspecified)
system.caches.controllers0.delayHistogram::4-7          571      0.63%     99.88% # delay_histogram (Unspecified)
system.caches.controllers0.delayHistogram::8-11           92      0.10%     99.99% # delay_histogram (Unspecified)
system.caches.controllers0.delayHistogram::12-15            1      0.00%     99.99% # delay_histogram (Unspecified)
system.caches.controllers0.delayHistogram::16-19            9      0.01%    100.00% # delay_histogram (Unspecified)
system.caches.controllers0.delayHistogram::24-27            3      0.00%    100.00% # delay_histogram (Unspecified)
system.caches.controllers0.delayHistogram::total        90312                       # delay_histogram (Unspecified)
system.caches.controllers0.cacheMemory.m_demand_hits     28051956                       # Number of cache demand hits (Unspecified)
system.caches.controllers0.cacheMemory.m_demand_misses        45413                       # Number of cache demand misses (Unspecified)
system.caches.controllers0.cacheMemory.m_demand_accesses     28097369                       # Number of cache demand accesses (Unspecified)
system.caches.controllers0.forwardToCache.m_buf_msgs     0.000872                       # Average number of messages in buffer (Unspecified)
system.caches.controllers0.forwardToCache.m_stall_time  5009.934357                       # Average number of cycles messages are stalled in this MB (Unspecified)
system.caches.controllers0.mandatoryQueue.m_buf_msgs     0.546038                       # Average number of messages in buffer (Unspecified)
system.caches.controllers0.mandatoryQueue.m_stall_time  1002.365951                       # Average number of cycles messages are stalled in this MB (Unspecified)
system.caches.controllers0.power_state.pwrStateResidencyTicks::UNDEFINED  51484160000                       # Cumulative time (in ticks) in various power states (Tick)
system.caches.controllers0.requestFromCache.m_buf_msgs     0.003508                       # Average number of messages in buffer (Unspecified)
system.caches.controllers0.requestFromCache.m_stall_time  1999.999883                       # Average number of cycles messages are stalled in this MB (Unspecified)
system.caches.controllers0.responseToCache.m_buf_msgs     0.000882                       # Average number of messages in buffer (Unspecified)
system.caches.controllers0.responseToCache.m_stall_time  5000.237355                       # Average number of cycles messages are stalled in this MB (Unspecified)
system.caches.controllers1.forwardFromDir.m_buf_msgs     0.000872                       # Average number of messages in buffer (Unspecified)
system.caches.controllers1.forwardFromDir.m_stall_time   999.813865                       # Average number of cycles messages are stalled in this MB (Unspecified)
system.caches.controllers1.power_state.pwrStateResidencyTicks::UNDEFINED  51484160000                       # Cumulative time (in ticks) in various power states (Tick)
system.caches.controllers1.requestToDir.m_buf_msgs     0.001754                       # Average number of messages in buffer (Unspecified)
system.caches.controllers1.requestToDir.m_stall_time  9970.060403                       # Average number of cycles messages are stalled in this MB (Unspecified)
system.caches.controllers1.requestToMemory.m_buf_msgs     0.001755                       # Average number of messages in buffer (Unspecified)
system.caches.controllers1.requestToMemory.m_stall_time  1000.004642                       # Average number of cycles messages are stalled in this MB (Unspecified)
system.caches.controllers1.responseFromDir.m_buf_msgs     0.000882                       # Average number of messages in buffer (Unspecified)
system.caches.controllers1.responseFromDir.m_stall_time   999.998660                       # Average number of cycles messages are stalled in this MB (Unspecified)
system.caches.controllers1.responseFromMemory.m_buf_msgs     0.002131                       # Average number of messages in buffer (Unspecified)
system.caches.controllers1.responseFromMemory.m_stall_time   999.998679                       # Average number of cycles messages are stalled in this MB (Unspecified)
system.caches.network.msg_count.Control         90824                       (Unspecified)
system.caches.network.msg_byte.Control         726592                       (Unspecified)
system.caches.network.msg_count.Data            89801                       (Unspecified)
system.caches.network.msg_byte.Data           6465672                       (Unspecified)
system.caches.network.msg_count.Response_Data        90824                       (Unspecified)
system.caches.network.msg_byte.Response_Data      6539328                       (Unspecified)
system.caches.network.msg_count.Writeback_Control        89800                       (Unspecified)
system.caches.network.msg_byte.Writeback_Control       718400                       (Unspecified)
system.caches.network.int_link_buffers2.m_buf_msgs     0.001754                       # Average number of messages in buffer (Unspecified)
system.caches.network.int_link_buffers2.m_stall_time  7970.060986                       # Average number of cycles messages are stalled in this MB (Unspecified)
system.caches.network.int_link_buffers8.m_buf_msgs     0.000872                       # Average number of messages in buffer (Unspecified)
system.caches.network.int_link_buffers8.m_stall_time  3010.306898                       # Average number of cycles messages are stalled in this MB (Unspecified)
system.caches.network.int_link_buffers9.m_buf_msgs     0.000882                       # Average number of messages in buffer (Unspecified)
system.caches.network.int_link_buffers9.m_stall_time  3000.240307                       # Average number of cycles messages are stalled in this MB (Unspecified)
system.caches.network.power_state.pwrStateResidencyTicks::UNDEFINED  51484160000                       # Cumulative time (in ticks) in various power states (Tick)
system.caches.network.routers0.percent_links_utilized     0.438544                       (Unspecified)
system.caches.network.routers0.msg_count.Control::2        45412                       (Unspecified)
system.caches.network.routers0.msg_bytes.Control::2       363296                       (Unspecified)
system.caches.network.routers0.msg_count.Data::2        44901                       (Unspecified)
system.caches.network.routers0.msg_bytes.Data::2      3232872                       (Unspecified)
system.caches.network.routers0.msg_count.Response_Data::4        45412                       (Unspecified)
system.caches.network.routers0.msg_bytes.Response_Data::4      3269664                       (Unspecified)
system.caches.network.routers0.msg_count.Writeback_Control::3        44900                       (Unspecified)
system.caches.network.routers0.msg_bytes.Writeback_Control::3       359200                       (Unspecified)
system.caches.network.routers0.port_buffers3.m_buf_msgs     0.000872                       # Average number of messages in buffer (Unspecified)
system.caches.network.routers0.port_buffers3.m_stall_time  4010.120647                       # Average number of cycles messages are stalled in this MB (Unspecified)
system.caches.network.routers0.port_buffers4.m_buf_msgs     0.000882                       # Average number of messages in buffer (Unspecified)
system.caches.network.routers0.port_buffers4.m_stall_time  4000.238850                       # Average number of cycles messages are stalled in this MB (Unspecified)
system.caches.network.routers0.port_buffers7.m_buf_msgs     0.005650                       # Average number of messages in buffer (Unspecified)
system.caches.network.routers0.port_buffers7.m_stall_time  6970.061219                       # Average number of cycles messages are stalled in this MB (Unspecified)
system.caches.network.routers0.power_state.pwrStateResidencyTicks::UNDEFINED  51484160000                       # Cumulative time (in ticks) in various power states (Tick)
system.caches.network.routers0.throttle00.link_utilization     0.440532                       (Unspecified)
system.caches.network.routers0.throttle00.msg_count.Response_Data::4        45412                       (Unspecified)
system.caches.network.routers0.throttle00.msg_bytes.Response_Data::4      3269664                       (Unspecified)
system.caches.network.routers0.throttle00.msg_count.Writeback_Control::3        44900                       (Unspecified)
system.caches.network.routers0.throttle00.msg_bytes.Writeback_Control::3       359200                       (Unspecified)
system.caches.network.routers0.throttle01.link_utilization     0.436556                       (Unspecified)
system.caches.network.routers0.throttle01.msg_count.Control::2        45412                       (Unspecified)
system.caches.network.routers0.throttle01.msg_bytes.Control::2       363296                       (Unspecified)
system.caches.network.routers0.throttle01.msg_count.Data::2        44901                       (Unspecified)
system.caches.network.routers0.throttle01.msg_bytes.Data::2      3232872                       (Unspecified)
system.caches.network.routers1.percent_links_utilized     0.438543                       (Unspecified)
system.caches.network.routers1.msg_count.Control::2        45412                       (Unspecified)
system.caches.network.routers1.msg_bytes.Control::2       363296                       (Unspecified)
system.caches.network.routers1.msg_count.Data::2        44900                       (Unspecified)
system.caches.network.routers1.msg_bytes.Data::2      3232800                       (Unspecified)
system.caches.network.routers1.msg_count.Response_Data::4        45412                       (Unspecified)
system.caches.network.routers1.msg_bytes.Response_Data::4      3269664                       (Unspecified)
system.caches.network.routers1.msg_count.Writeback_Control::3        44900                       (Unspecified)
system.caches.network.routers1.msg_bytes.Writeback_Control::3       359200                       (Unspecified)
system.caches.network.routers1.port_buffers2.m_buf_msgs     0.001754                       # Average number of messages in buffer (Unspecified)
system.caches.network.routers1.port_buffers2.m_stall_time  8970.060714                       # Average number of cycles messages are stalled in this MB (Unspecified)
system.caches.network.routers1.port_buffers6.m_buf_msgs     0.000911                       # Average number of messages in buffer (Unspecified)
system.caches.network.routers1.port_buffers6.m_stall_time  2010.493111                       # Average number of cycles messages are stalled in this MB (Unspecified)
system.caches.network.routers1.port_buffers7.m_buf_msgs     0.000886                       # Average number of messages in buffer (Unspecified)
system.caches.network.routers1.port_buffers7.m_stall_time  2000.241725                       # Average number of cycles messages are stalled in this MB (Unspecified)
system.caches.network.routers1.power_state.pwrStateResidencyTicks::UNDEFINED  51484160000                       # Cumulative time (in ticks) in various power states (Tick)
system.caches.network.routers1.throttle00.link_utilization     0.436554                       (Unspecified)
system.caches.network.routers1.throttle00.msg_count.Control::2        45412                       (Unspecified)
system.caches.network.routers1.throttle00.msg_bytes.Control::2       363296                       (Unspecified)
system.caches.network.routers1.throttle00.msg_count.Data::2        44900                       (Unspecified)
system.caches.network.routers1.throttle00.msg_bytes.Data::2      3232800                       (Unspecified)
system.caches.network.routers1.throttle01.link_utilization     0.440532                       (Unspecified)
system.caches.network.routers1.throttle01.msg_count.Response_Data::4        45412                       (Unspecified)
system.caches.network.routers1.throttle01.msg_bytes.Response_Data::4      3269664                       (Unspecified)
system.caches.network.routers1.throttle01.msg_count.Writeback_Control::3        44900                       (Unspecified)
system.caches.network.routers1.throttle01.msg_bytes.Writeback_Control::3       359200                       (Unspecified)
system.caches.power_state.pwrStateResidencyTicks::UNDEFINED  51484160000                       # Cumulative time (in ticks) in various power states (Tick)
system.caches.sequencers.power_state.pwrStateResidencyTicks::UNDEFINED  51484160000                       # Cumulative time (in ticks) in various power states (Tick)
system.caches.sys_port_proxy.power_state.pwrStateResidencyTicks::UNDEFINED  51484160000                       # Cumulative time (in ticks) in various power states (Tick)
system.clk_domain.clock                          1000                       # Clock period in ticks (Tick)
system.clk_domain.voltage_domain.voltage            1                       # Voltage in Volts (Volt)
system.cpu.numCycles                         51484161                       # Number of cpu cycles simulated (Cycle)
system.cpu.numWorkItemsStarted                      0                       # Number of work items this cpu started (Count)
system.cpu.numWorkItemsCompleted                    0                       # Number of work items this cpu completed (Count)
system.cpu.instsAdded                        95190163                       # Number of instructions added to the IQ (excludes non-spec) (Count)
system.cpu.nonSpecInstsAdded                   917863                       # Number of non-speculative instructions added to the IQ (Count)
system.cpu.instsIssued                       92158333                       # Number of instructions issued (Count)
system.cpu.squashedInstsIssued                   2121                       # Number of squashed instructions issued (Count)
system.cpu.squashedInstsExamined             12906051                       # Number of squashed instructions iterated over during squash; mainly for profiling (Count)
system.cpu.squashedOperandsExamined          15350396                       # Number of squashed operands that are examined and possibly removed from graph (Count)
system.cpu.squashedNonSpecRemoved                 223                       # Number of squashed non-spec instructions that were removed (Count)
system.cpu.numIssuedDist::samples            51400018                       # Number of insts issued each cycle (Count)
system.cpu.numIssuedDist::mean               1.792963                       # Number of insts issued each cycle (Count)
system.cpu.numIssuedDist::stdev              2.041607                       # Number of insts issued each cycle (Count)
system.cpu.numIssuedDist::underflows                0      0.00%      0.00% # Number of insts issued each cycle (Count)
system.cpu.numIssuedDist::0                  21100464     41.05%     41.05% # Number of insts issued each cycle (Count)
system.cpu.numIssuedDist::1                   8379605     16.30%     57.35% # Number of insts issued each cycle (Count)
system.cpu.numIssuedDist::2                   5272889     10.26%     67.61% # Number of insts issued each cycle (Count)
system.cpu.numIssuedDist::3                   5690017     11.07%     78.68% # Number of insts issued each cycle (Count)
system.cpu.numIssuedDist::4                   3407277      6.63%     85.31% # Number of insts issued each cycle (Count)
system.cpu.numIssuedDist::5                   4001542      7.79%     93.10% # Number of insts issued each cycle (Count)
system.cpu.numIssuedDist::6                   2526474      4.92%     98.01% # Number of insts issued each cycle (Count)
system.cpu.numIssuedDist::7                    806763      1.57%     99.58% # Number of insts issued each cycle (Count)
system.cpu.numIssuedDist::8                    214987      0.42%    100.00% # Number of insts issued each cycle (Count)
system.cpu.numIssuedDist::overflows                 0      0.00%    100.00% # Number of insts issued each cycle (Count)
system.cpu.numIssuedDist::min_value                 0                       # Number of insts issued each cycle (Count)
system.cpu.numIssuedDist::max_value                 8                       # Number of insts issued each cycle (Count)
system.cpu.numIssuedDist::total              51400018                       # Number of insts issued each cycle (Count)
system.cpu.statFuBusy::No_OpClass                   0      0.00%      0.00% # attempts to use FU when none available (Count)
system.cpu.statFuBusy::IntAlu                   61347     10.81%     10.81% # attempts to use FU when none available (Count)
system.cpu.statFuBusy::IntMult                      0      0.00%     10.81% # attempts to use FU when none available (Count)
system.cpu.statFuBusy::IntDiv                       0      0.00%     10.81% # attempts to use FU when none available (Count)
system.cpu.statFuBusy::FloatAdd                     0      0.00%     10.81% # attempts to use FU when none available (Count)
system.cpu.statFuBusy::FloatCmp                     0      0.00%     10.81% # attempts to use FU when none available (Count)
system.cpu.statFuBusy::FloatCvt                     0      0.00%     10.81% # attempts to use FU when none available (Count)
system.cpu.statFuBusy::FloatMult                    0      0.00%     10.81% # attempts to use FU when none available (Count)
system.cpu.statFuBusy::FloatMultAcc                 0      0.00%     10.81% # attempts to use FU when none available (Count)
system.cpu.statFuBusy::FloatDiv                     0      0.00%     10.81% # attempts to use FU when none available (Count)
system.cpu.statFuBusy::FloatMisc                    0      0.00%     10.81% # attempts to use FU when none available (Count)
system.cpu.statFuBusy::FloatSqrt                    0      0.00%     10.81% # attempts to use FU when none available (Count)
system.cpu.statFuBusy::SimdAdd                      2      0.00%     10.81% # attempts to use FU when none available (Count)
system.cpu.statFuBusy::SimdAddAcc                   0      0.00%     10.81% # attempts to use FU when none available (Count)
system.cpu.statFuBusy::SimdAlu                     49      0.01%     10.82% # attempts to use FU when none available (Count)
system.cpu.statFuBusy::SimdCmp                      0      0.00%     10.82% # attempts to use FU when none available (Count)
system.cpu.statFuBusy::SimdCvt                    826      0.15%     10.96% # attempts to use FU when none available (Count)
system.cpu.statFuBusy::SimdMisc                     4      0.00%     10.97% # attempts to use FU when none available (Count)
system.cpu.statFuBusy::SimdMult                     0      0.00%     10.97% # attempts to use FU when none available (Count)
system.cpu.statFuBusy::SimdMultAcc                  0      0.00%     10.97% # attempts to use FU when none available (Count)
system.cpu.statFuBusy::SimdShift                   35      0.01%     10.97% # attempts to use FU when none available (Count)
system.cpu.statFuBusy::SimdShiftAcc                 0      0.00%     10.97% # attempts to use FU when none available (Count)
system.cpu.statFuBusy::SimdDiv                      0      0.00%     10.97% # attempts to use FU when none available (Count)
system.cpu.statFuBusy::SimdSqrt                     0      0.00%     10.97% # attempts to use FU when none available (Count)
system.cpu.statFuBusy::SimdFloatAdd                 0      0.00%     10.97% # attempts to use FU when none available (Count)
system.cpu.statFuBusy::SimdFloatAlu                 0      0.00%     10.97% # attempts to use FU when none available (Count)
system.cpu.statFuBusy::SimdFloatCmp                 0      0.00%     10.97% # attempts to use FU when none available (Count)
system.cpu.statFuBusy::SimdFloatCvt                 0      0.00%     10.97% # attempts to use FU when none available (Count)
system.cpu.statFuBusy::SimdFloatDiv                 0      0.00%     10.97% # attempts to use FU when none available (Count)
system.cpu.statFuBusy::SimdFloatMisc                0      0.00%     10.97% # attempts to use FU when none available (Count)
system.cpu.statFuBusy::SimdFloatMult                0      0.00%     10.97% # attempts to use FU when none available (Count)
system.cpu.statFuBusy::SimdFloatMultAcc             0      0.00%     10.97% # attempts to use FU when none available (Count)
system.cpu.statFuBusy::SimdFloatSqrt                0      0.00%     10.97% # attempts to use FU when none available (Count)
system.cpu.statFuBusy::SimdReduceAdd                0      0.00%     10.97% # attempts to use FU when none available (Count)
system.cpu.statFuBusy::SimdReduceAlu                0      0.00%     10.97% # attempts to use FU when none available (Count)
system.cpu.statFuBusy::SimdReduceCmp                0      0.00%     10.97% # attempts to use FU when none available (Count)
system.cpu.statFuBusy::SimdFloatReduceAdd            0      0.00%     10.97% # attempts to use FU when none available (Count)
system.cpu.statFuBusy::SimdFloatReduceCmp            0      0.00%     10.97% # attempts to use FU when none available (Count)
system.cpu.statFuBusy::SimdAes                      0      0.00%     10.97% # attempts to use FU when none available (Count)
system.cpu.statFuBusy::SimdAesMix                   0      0.00%     10.97% # attempts to use FU when none available (Count)
system.cpu.statFuBusy::SimdSha1Hash                 0      0.00%     10.97% # attempts to use FU when none available (Count)
system.cpu.statFuBusy::SimdSha1Hash2                0      0.00%     10.97% # attempts to use FU when none available (Count)
system.cpu.statFuBusy::SimdSha256Hash               0      0.00%     10.97% # attempts to use FU when none available (Count)
system.cpu.statFuBusy::SimdSha256Hash2              0      0.00%     10.97% # attempts to use FU when none available (Count)
system.cpu.statFuBusy::SimdShaSigma2                0      0.00%     10.97% # attempts to use FU when none available (Count)
system.cpu.statFuBusy::SimdShaSigma3                0      0.00%     10.97% # attempts to use FU when none available (Count)
system.cpu.statFuBusy::SimdPredAlu                  0      0.00%     10.97% # attempts to use FU when none available (Count)
system.cpu.statFuBusy::MemRead                 498761     87.89%     98.86% # attempts to use FU when none available (Count)
system.cpu.statFuBusy::MemWrite                  6106      1.08%     99.93% # attempts to use FU when none available (Count)
system.cpu.statFuBusy::FloatMemRead               210      0.04%     99.97% # attempts to use FU when none available (Count)
system.cpu.statFuBusy::FloatMemWrite              164      0.03%    100.00% # attempts to use FU when none available (Count)
system.cpu.statFuBusy::IprAccess                    0      0.00%    100.00% # attempts to use FU when none available (Count)
system.cpu.statFuBusy::InstPrefetch                 0      0.00%    100.00% # attempts to use FU when none available (Count)
system.cpu.statIssuedInstType_0::No_OpClass      1594064      1.73%      1.73% # Number of instructions issued per FU type, per thread (Count)
system.cpu.statIssuedInstType_0::IntAlu      53673151     58.24%     59.97% # Number of instructions issued per FU type, per thread (Count)
system.cpu.statIssuedInstType_0::IntMult         1915      0.00%     59.97% # Number of instructions issued per FU type, per thread (Count)
system.cpu.statIssuedInstType_0::IntDiv         37259      0.04%     60.01% # Number of instructions issued per FU type, per thread (Count)
system.cpu.statIssuedInstType_0::FloatAdd      1842260      2.00%     62.01% # Number of instructions issued per FU type, per thread (Count)
system.cpu.statIssuedInstType_0::FloatCmp            0      0.00%     62.01% # Number of instructions issued per FU type, per thread (Count)
system.cpu.statIssuedInstType_0::FloatCvt       262384      0.28%     62.30% # Number of instructions issued per FU type, per thread (Count)
system.cpu.statIssuedInstType_0::FloatMult       262144      0.28%     62.58% # Number of instructions issued per FU type, per thread (Count)
system.cpu.statIssuedInstType_0::FloatMultAcc            0      0.00%     62.58% # Number of instructions issued per FU type, per thread (Count)
system.cpu.statIssuedInstType_0::FloatDiv            0      0.00%     62.58% # Number of instructions issued per FU type, per thread (Count)
system.cpu.statIssuedInstType_0::FloatMisc            0      0.00%     62.58% # Number of instructions issued per FU type, per thread (Count)
system.cpu.statIssuedInstType_0::FloatSqrt            0      0.00%     62.58% # Number of instructions issued per FU type, per thread (Count)
system.cpu.statIssuedInstType_0::SimdAdd         7030      0.01%     62.59% # Number of instructions issued per FU type, per thread (Count)
system.cpu.statIssuedInstType_0::SimdAddAcc            0      0.00%     62.59% # Number of instructions issued per FU type, per thread (Count)
system.cpu.statIssuedInstType_0::SimdAlu       275115      0.30%     62.89% # Number of instructions issued per FU type, per thread (Count)
system.cpu.statIssuedInstType_0::SimdCmp            8      0.00%     62.89% # Number of instructions issued per FU type, per thread (Count)
system.cpu.statIssuedInstType_0::SimdCvt        14675      0.02%     62.90% # Number of instructions issued per FU type, per thread (Count)
system.cpu.statIssuedInstType_0::SimdMisc       406515      0.44%     63.34% # Number of instructions issued per FU type, per thread (Count)
system.cpu.statIssuedInstType_0::SimdMult            0      0.00%     63.34% # Number of instructions issued per FU type, per thread (Count)
system.cpu.statIssuedInstType_0::SimdMultAcc            0      0.00%     63.34% # Number of instructions issued per FU type, per thread (Count)
system.cpu.statIssuedInstType_0::SimdShift         1072      0.00%     63.34% # Number of instructions issued per FU type, per thread (Count)
system.cpu.statIssuedInstType_0::SimdShiftAcc            0      0.00%     63.34% # Number of instructions issued per FU type, per thread (Count)
system.cpu.statIssuedInstType_0::SimdDiv            0      0.00%     63.34% # Number of instructions issued per FU type, per thread (Count)
system.cpu.statIssuedInstType_0::SimdSqrt            0      0.00%     63.34% # Number of instructions issued per FU type, per thread (Count)
system.cpu.statIssuedInstType_0::SimdFloatAdd       524300      0.57%     63.91% # Number of instructions issued per FU type, per thread (Count)
system.cpu.statIssuedInstType_0::SimdFloatAlu            0      0.00%     63.91% # Number of instructions issued per FU type, per thread (Count)
system.cpu.statIssuedInstType_0::SimdFloatCmp            0      0.00%     63.91% # Number of instructions issued per FU type, per thread (Count)
system.cpu.statIssuedInstType_0::SimdFloatCvt       393263      0.43%     64.34% # Number of instructions issued per FU type, per thread (Count)
system.cpu.statIssuedInstType_0::SimdFloatDiv       131079      0.14%     64.48% # Number of instructions issued per FU type, per thread (Count)
system.cpu.statIssuedInstType_0::SimdFloatMisc            0      0.00%     64.48% # Number of instructions issued per FU type, per thread (Count)
system.cpu.statIssuedInstType_0::SimdFloatMult       393221      0.43%     64.91% # Number of instructions issued per FU type, per thread (Count)
system.cpu.statIssuedInstType_0::SimdFloatMultAcc            0      0.00%     64.91% # Number of instructions issued per FU type, per thread (Count)
system.cpu.statIssuedInstType_0::SimdFloatSqrt            0      0.00%     64.91% # Number of instructions issued per FU type, per thread (Count)
system.cpu.statIssuedInstType_0::SimdReduceAdd            0      0.00%     64.91% # Number of instructions issued per FU type, per thread (Count)
system.cpu.statIssuedInstType_0::SimdReduceAlu            0      0.00%     64.91% # Number of instructions issued per FU type, per thread (Count)
system.cpu.statIssuedInstType_0::SimdReduceCmp            0      0.00%     64.91% # Number of instructions issued per FU type, per thread (Count)
system.cpu.statIssuedInstType_0::SimdFloatReduceAdd            0      0.00%     64.91% # Number of instructions issued per FU type, per thread (Count)
system.cpu.statIssuedInstType_0::SimdFloatReduceCmp            0      0.00%     64.91% # Number of instructions issued per FU type, per thread (Count)
system.cpu.statIssuedInstType_0::SimdAes            0      0.00%     64.91% # Number of instructions issued per FU type, per thread (Count)
system.cpu.statIssuedInstType_0::SimdAesMix            0      0.00%     64.91% # Number of instructions issued per FU type, per thread (Count)
system.cpu.statIssuedInstType_0::SimdSha1Hash            0      0.00%     64.91% # Number of instructions issued per FU type, per thread (Count)
system.cpu.statIssuedInstType_0::SimdSha1Hash2            0      0.00%     64.91% # Number of instructions issued per FU type, per thread (Count)
system.cpu.statIssuedInstType_0::SimdSha256Hash            0      0.00%     64.91% # Number of instructions issued per FU type, per thread (Count)
system.cpu.statIssuedInstType_0::SimdSha256Hash2            0      0.00%     64.91% # Number of instructions issued per FU type, per thread (Count)
system.cpu.statIssuedInstType_0::SimdShaSigma2            0      0.00%     64.91% # Number of instructions issued per FU type, per thread (Count)
system.cpu.statIssuedInstType_0::SimdShaSigma3            0      0.00%     64.91% # Number of instructions issued per FU type, per thread (Count)
system.cpu.statIssuedInstType_0::SimdPredAlu            0      0.00%     64.91% # Number of instructions issued per FU type, per thread (Count)
system.cpu.statIssuedInstType_0::MemRead     19042923     20.66%     85.57% # Number of instructions issued per FU type, per thread (Count)
system.cpu.statIssuedInstType_0::MemWrite      9595019     10.41%     95.98% # Number of instructions issued per FU type, per thread (Count)
system.cpu.statIssuedInstType_0::FloatMemRead      2377846      2.58%     98.56% # Number of instructions issued per FU type, per thread (Count)
system.cpu.statIssuedInstType_0::FloatMemWrite      1323090      1.44%    100.00% # Number of instructions issued per FU type, per thread (Count)
system.cpu.statIssuedInstType_0::IprAccess            0      0.00%    100.00% # Number of instructions issued per FU type, per thread (Count)
system.cpu.statIssuedInstType_0::InstPrefetch            0      0.00%    100.00% # Number of instructions issued per FU type, per thread (Count)
system.cpu.statIssuedInstType_0::total       92158333                       # Number of instructions issued per FU type, per thread (Count)
system.cpu.issueRate                         1.790033                       # Inst issue rate ((Count/Cycle))
system.cpu.fuBusy                              567504                       # FU busy when requested (Count)
system.cpu.fuBusyRate                        0.006158                       # FU busy rate (busy events/executed inst) ((Count/Count))
system.cpu.intInstQueueReads                217752771                       # Number of integer instruction queue reads (Count)
system.cpu.intInstQueueWrites                99715412                       # Number of integer instruction queue writes (Count)
system.cpu.intInstQueueWakeupAccesses        82234636                       # Number of integer instruction queue wakeup accesses (Count)
system.cpu.fpInstQueueReads                  18533533                       # Number of floating instruction queue reads (Count)
system.cpu.fpInstQueueWrites                  9301460                       # Number of floating instruction queue writes (Count)
system.cpu.fpInstQueueWakeupAccesses          9263366                       # Number of floating instruction queue wakeup accesses (Count)
system.cpu.vecInstQueueReads                        0                       # Number of vector instruction queue reads (Count)
system.cpu.vecInstQueueWrites                       0                       # Number of vector instruction queue writes (Count)
system.cpu.vecInstQueueWakeupAccesses               0                       # Number of vector instruction queue wakeup accesses (Count)
system.cpu.intAluAccesses                    81864445                       # Number of integer alu accesses (Count)
system.cpu.fpAluAccesses                      9267328                       # Number of floating point alu accesses (Count)
system.cpu.vecAluAccesses                           0                       # Number of vector alu accesses (Count)
system.cpu.idleCycles                               0                       # Number of cycles IEW is idle (Cycle)
system.cpu.squashCycles                        149178                       # Number of cycles IEW is squashing (Cycle)
system.cpu.blockCycles                        2017847                       # Number of cycles IEW is blocking (Cycle)
system.cpu.unblockCycles                        30224                       # Number of cycles IEW is unblocking (Cycle)
system.cpu.dispatchedInsts                   96108026                       # Number of instructions dispatched to IQ (Count)
system.cpu.dispSquashedInsts                      771                       # Number of squashed instructions skipped by dispatch (Count)
system.cpu.dispLoadInsts                     22237633                       # Number of dispatched load instructions (Count)
system.cpu.dispStoreInsts                    11312442                       # Number of dispatched store instructions (Count)
system.cpu.dispNonSpecInsts                    917859                       # Number of dispatched non-speculative instructions (Count)
system.cpu.iqFullEvents                         10377                       # Number of times the IQ has become full, causing a stall (Count)
system.cpu.lsqFullEvents                        15011                       # Number of times the LSQ has become full, causing a stall (Count)
system.cpu.memOrderViolationEvents               3293                       # Number of memory order violations (Count)
system.cpu.predictedTakenIncorrect              72576                       # Number of branches that were predicted taken incorrectly (Count)
system.cpu.predictedNotTakenIncorrect           75411                       # Number of branches that were predicted not taken incorrectly (Count)
system.cpu.branchMispredicts                   147987                       # Number of branch mispredicts detected at execute (Count)
system.cpu.numInsts                          91692101                       # Number of executed instructions (Count)
system.cpu.numLoadInsts                      21300124                       # Number of load instructions executed (Count)
system.cpu.numSquashedInsts                    466227                       # Number of squashed instructions skipped in execute (Count)
system.cpu.numSwp                                   0                       # Number of swp insts executed (Count)
system.cpu.numNop                                   0                       # Number of nop insts executed (Count)
system.cpu.numRefs                           32078245                       # Number of memory reference insts executed (Count)
system.cpu.numBranches                        6892045                       # Number of branches executed (Count)
system.cpu.numStoreInsts                     10778121                       # Number of stores executed (Count)
system.cpu.numRate                           1.780977                       # Inst execution rate ((Count/Cycle))
system.cpu.instsToCommit                     91582099                       # Cumulative count of insts sent to commit (Count)
system.cpu.writebackCount                    91498002                       # Cumulative count of insts written-back (Count)
system.cpu.producerInst                      66176298                       # Number of instructions producing a value (Count)
system.cpu.consumerInst                     108668809                       # Number of instructions consuming a value (Count)
system.cpu.wbRate                            1.777207                       # Insts written-back per cycle ((Count/Cycle))
system.cpu.wbFanout                          0.608972                       # Average fanout of values written-back ((Count/Count))
system.cpu.timesIdled                            2468                       # Number of times that the entire CPU went into an idle state and unscheduled itself (Count)
system.cpu.idleCycles                           84143                       # Total number of cycles that the CPU has spent unscheduled due to idling (Cycle)
system.cpu.committedInsts                    46698355                       # Number of Instructions Simulated (Count)
system.cpu.committedOps                      83201955                       # Number of Ops (including micro ops) Simulated (Count)
system.cpu.cpi                               1.102483                       # CPI: Cycles Per Instruction ((Cycle/Count))
system.cpu.totalCpi                          1.102483                       # CPI: Total CPI of All Threads ((Cycle/Count))
system.cpu.ipc                               0.907043                       # IPC: Instructions Per Cycle ((Count/Cycle))
system.cpu.totalIpc                          0.907043                       # IPC: Total IPC of All Threads ((Count/Cycle))
system.cpu.intRegfileReads                  144634044                       # Number of integer regfile reads (Count)
system.cpu.intRegfileWrites                  64319100                       # Number of integer regfile writes (Count)
system.cpu.fpRegfileReads                     9169508                       # Number of floating regfile reads (Count)
system.cpu.fpRegfileWrites                    7409071                       # Number of floating regfile writes (Count)
system.cpu.ccRegfileReads                    19312256                       # number of cc regfile reads (Count)
system.cpu.ccRegfileWrites                   19681962                       # number of cc regfile writes (Count)
system.cpu.miscRegfileReads                  47015064                       # number of misc regfile reads (Count)
system.cpu.miscRegfileWrites                  1835143                       # number of misc regfile writes (Count)
system.cpu.MemDepUnit__0.insertedLoads       22237633                       # Number of loads inserted to the mem dependence unit. (Count)
system.cpu.MemDepUnit__0.insertedStores      11312442                       # Number of stores inserted to the mem dependence unit. (Count)
system.cpu.MemDepUnit__0.conflictingLoads      7600857                       # Number of conflicting loads. (Count)
system.cpu.MemDepUnit__0.conflictingStores      2216953                       # Number of conflicting stores. (Count)
system.cpu.MemDepUnit__1.insertedLoads              0                       # Number of loads inserted to the mem dependence unit. (Count)
system.cpu.MemDepUnit__1.insertedStores             0                       # Number of stores inserted to the mem dependence unit. (Count)
system.cpu.MemDepUnit__1.conflictingLoads            0                       # Number of conflicting loads. (Count)
system.cpu.MemDepUnit__1.conflictingStores            0                       # Number of conflicting stores. (Count)
system.cpu.MemDepUnit__2.insertedLoads              0                       # Number of loads inserted to the mem dependence unit. (Count)
system.cpu.MemDepUnit__2.insertedStores             0                       # Number of stores inserted to the mem dependence unit. (Count)
system.cpu.MemDepUnit__2.conflictingLoads            0                       # Number of conflicting loads. (Count)
system.cpu.MemDepUnit__2.conflictingStores            0                       # Number of conflicting stores. (Count)
system.cpu.MemDepUnit__3.insertedLoads              0                       # Number of loads inserted to the mem dependence unit. (Count)
system.cpu.MemDepUnit__3.insertedStores             0                       # Number of stores inserted to the mem dependence unit. (Count)
system.cpu.MemDepUnit__3.conflictingLoads            0                       # Number of conflicting loads. (Count)
system.cpu.MemDepUnit__3.conflictingStores            0                       # Number of conflicting stores. (Count)
system.cpu.branchPred.lookups                 7479031                       # Number of BP lookups (Count)
system.cpu.branchPred.condPredicted           2756398                       # Number of conditional branches predicted (Count)
system.cpu.branchPred.condIncorrect            146088                       # Number of conditional branches incorrect (Count)
system.cpu.branchPred.BTBLookups              4254617                       # Number of BTB lookups (Count)
system.cpu.branchPred.BTBHits                 4252481                       # Number of BTB hits (Count)
system.cpu.branchPred.BTBHitRatio            0.999498                       # BTB Hit Ratio (Ratio)
system.cpu.branchPred.RASUsed                 1592176                       # Number of times the RAS was used to get a target. (Count)
[...]
system.mem_ctrl.rdPerTurnAround::gmean      15.865175                       # Reads before turning the bus around for writes (Count)
system.mem_ctrl.rdPerTurnAround::stdev       0.514138                       # Reads before turning the bus around for writes (Count)
system.mem_ctrl.rdPerTurnAround::12                 1      0.17%      0.17% # Reads before turning the bus around for writes (Count)
system.mem_ctrl.rdPerTurnAround::13                 5      0.87%      1.05% # Reads before turning the bus around for writes (Count)
system.mem_ctrl.rdPerTurnAround::14                 9      1.57%      2.62% # Reads before turning the bus around for writes (Count)
system.mem_ctrl.rdPerTurnAround::15                47      8.22%     10.84% # Reads before turning the bus around for writes (Count)
system.mem_ctrl.rdPerTurnAround::16               500     87.41%     98.25% # Reads before turning the bus around for writes (Count)
system.mem_ctrl.rdPerTurnAround::17                 8      1.40%     99.65% # Reads before turning the bus around for writes (Count)
system.mem_ctrl.rdPerTurnAround::18                 2      0.35%    100.00% # Reads before turning the bus around for writes (Count)
system.mem_ctrl.rdPerTurnAround::total            572                       # Reads before turning the bus around for writes (Count)
system.mem_ctrl.wrPerTurnAround::samples          572                       # Writes before turning the bus around for reads (Count)
system.mem_ctrl.wrPerTurnAround::mean       16.015734                       # Writes before turning the bus around for reads (Count)
system.mem_ctrl.wrPerTurnAround::gmean      16.014881                       # Writes before turning the bus around for reads (Count)
system.mem_ctrl.wrPerTurnAround::stdev       0.171826                       # Writes before turning the bus around for reads (Count)
system.mem_ctrl.wrPerTurnAround::16               567     99.13%     99.13% # Writes before turning the bus around for reads (Count)
system.mem_ctrl.wrPerTurnAround::17                 1      0.17%     99.30% # Writes before turning the bus around for reads (Count)
system.mem_ctrl.wrPerTurnAround::18                 4      0.70%    100.00% # Writes before turning the bus around for reads (Count)
system.mem_ctrl.wrPerTurnAround::total            572                       # Writes before turning the bus around for reads (Count)
system.mem_ctrl.bytesReadWrQ                     5568                       # Total number of bytes read from write queue (Byte)
system.mem_ctrl.bytesReadSys                   585728                       # Total read bytes from the system interface side (Byte)
system.mem_ctrl.bytesWrittenSys                585728                       # Total written bytes from the system interface side (Byte)
system.mem_ctrl.avgRdBWSys               778872902.31642771                       # Average system read bandwidth in Byte/s ((Byte/Second))
system.mem_ctrl.avgWrBWSys               778872902.31642771                       # Average system write bandwidth in Byte/s ((Byte/Second))
system.mem_ctrl.totGap                      751877000                       # Total gap between requests (Tick)
system.mem_ctrl.avgGap                       41077.20                       # Average gap between requests ((Tick/Count))
system.mem_ctrl.requestorReadBytes::caches.controllers1       580160                       # Per-requestor bytes read from memory (Byte)
system.mem_ctrl.requestorWriteBytes::caches.controllers1       586304                       # Per-requestor bytes write to memory (Byte)
system.mem_ctrl.requestorReadRate::caches.controllers1 771468843.913725614548                       # Per-requestor bytes read from memory rate ((Byte/Second))
system.mem_ctrl.requestorWriteRate::caches.controllers1 779638839.392569303513                       # Per-requestor bytes write to memory rate ((Byte/Second))
system.mem_ctrl.requestorReadAccesses::caches.controllers1         9152                       # Per-requestor read serviced memory accesses (Count)
system.mem_ctrl.requestorWriteAccesses::caches.controllers1         9152                       # Per-requestor write serviced memory accesses (Count)
system.mem_ctrl.requestorReadTotalLat::caches.controllers1    268934750                       # Per-requestor read total memory access latency (Tick)
system.mem_ctrl.requestorWriteTotalLat::caches.controllers1  18605319750                       # Per-requestor write total memory access latency (Tick)
system.mem_ctrl.requestorReadAvgLat::caches.controllers1     29385.35                       # Per-requestor read average memory access latency ((Tick/Count))
system.mem_ctrl.requestorWriteAvgLat::caches.controllers1   2032923.92                       # Per-requestor write average memory access latency ((Tick/Count))
system.mem_ctrl.dram.bytesRead::caches.controllers1       585728                       # Number of bytes read from this memory (Byte)
system.mem_ctrl.dram.bytesRead::total          585728                       # Number of bytes read from this memory (Byte)
system.mem_ctrl.dram.bytesWritten::caches.controllers1       585728                       # Number of bytes written to this memory (Byte)
system.mem_ctrl.dram.bytesWritten::total       585728                       # Number of bytes written to this memory (Byte)
system.mem_ctrl.dram.numReads::caches.controllers1         9152                       # Number of read requests responded to by this memory (Count)
system.mem_ctrl.dram.numReads::total             9152                       # Number of read requests responded to by this memory (Count)
system.mem_ctrl.dram.numWrites::caches.controllers1         9152                       # Number of write requests responded to by this memory (Count)
system.mem_ctrl.dram.numWrites::total            9152                       # Number of write requests responded to by this memory (Count)
system.mem_ctrl.dram.bwRead::caches.controllers1    778872902                       # Total read bandwidth from this memory ((Byte/Second))
system.mem_ctrl.dram.bwRead::total          778872902                       # Total read bandwidth from this memory ((Byte/Second))
system.mem_ctrl.dram.bwWrite::caches.controllers1    778872902                       # Write bandwidth from this memory ((Byte/Second))
system.mem_ctrl.dram.bwWrite::total         778872902                       # Write bandwidth from this memory ((Byte/Second))
system.mem_ctrl.dram.bwTotal::caches.controllers1   1557745805                       # Total bandwidth to/from this memory ((Byte/Second))
system.mem_ctrl.dram.bwTotal::total        1557745805                       # Total bandwidth to/from this memory ((Byte/Second))
system.mem_ctrl.dram.readBursts                  9065                       # Number of DRAM read bursts (Count)
system.mem_ctrl.dram.writeBursts                 9161                       # Number of DRAM write bursts (Count)
system.mem_ctrl.dram.perBankRdBursts::0           518                       # Per bank write bursts (Count)
system.mem_ctrl.dram.perBankRdBursts::1           547                       # Per bank write bursts (Count)
system.mem_ctrl.dram.perBankRdBursts::2           589                       # Per bank write bursts (Count)
system.mem_ctrl.dram.perBankRdBursts::3           594                       # Per bank write bursts (Count)
system.mem_ctrl.dram.perBankRdBursts::4           577                       # Per bank write bursts (Count)
system.mem_ctrl.dram.perBankRdBursts::5           550                       # Per bank write bursts (Count)
system.mem_ctrl.dram.perBankRdBursts::6           544                       # Per bank write bursts (Count)
system.mem_ctrl.dram.perBankRdBursts::7           616                       # Per bank write bursts (Count)
system.mem_ctrl.dram.perBankRdBursts::8           520                       # Per bank write bursts (Count)
system.mem_ctrl.dram.perBankRdBursts::9           576                       # Per bank write bursts (Count)
system.mem_ctrl.dram.perBankRdBursts::10          557                       # Per bank write bursts (Count)
system.mem_ctrl.dram.perBankRdBursts::11          464                       # Per bank write bursts (Count)
system.mem_ctrl.dram.perBankRdBursts::12          588                       # Per bank write bursts (Count)
system.mem_ctrl.dram.perBankRdBursts::13          656                       # Per bank write bursts (Count)
system.mem_ctrl.dram.perBankRdBursts::14          641                       # Per bank write bursts (Count)
system.mem_ctrl.dram.perBankRdBursts::15          528                       # Per bank write bursts (Count)
system.mem_ctrl.dram.perBankWrBursts::0           516                       # Per bank write bursts (Count)
system.mem_ctrl.dram.perBankWrBursts::1           531                       # Per bank write bursts (Count)
system.mem_ctrl.dram.perBankWrBursts::2           545                       # Per bank write bursts (Count)
system.mem_ctrl.dram.perBankWrBursts::3           604                       # Per bank write bursts (Count)
system.mem_ctrl.dram.perBankWrBursts::4           556                       # Per bank write bursts (Count)
system.mem_ctrl.dram.perBankWrBursts::5           531                       # Per bank write bursts (Count)
system.mem_ctrl.dram.perBankWrBursts::6           534                       # Per bank write bursts (Count)
system.mem_ctrl.dram.perBankWrBursts::7           570                       # Per bank write bursts (Count)
system.mem_ctrl.dram.perBankWrBursts::8           513                       # Per bank write bursts (Count)
system.mem_ctrl.dram.perBankWrBursts::9           561                       # Per bank write bursts (Count)
system.mem_ctrl.dram.perBankWrBursts::10          532                       # Per bank write bursts (Count)
system.mem_ctrl.dram.perBankWrBursts::11          535                       # Per bank write bursts (Count)
system.mem_ctrl.dram.perBankWrBursts::12          698                       # Per bank write bursts (Count)
system.mem_ctrl.dram.perBankWrBursts::13          709                       # Per bank write bursts (Count)
system.mem_ctrl.dram.perBankWrBursts::14          685                       # Per bank write bursts (Count)
system.mem_ctrl.dram.perBankWrBursts::15          541                       # Per bank write bursts (Count)
system.mem_ctrl.dram.totQLat                 98966000                       # Total ticks spent queuing (Tick)
system.mem_ctrl.dram.totBusLat               45325000                       # Total ticks spent in databus transfers (Tick)
system.mem_ctrl.dram.totMemAccLat           268934750                       # Total ticks spent from burst creation until serviced by the DRAM (Tick)
system.mem_ctrl.dram.avgQLat                 10917.37                       # Average queueing delay per DRAM burst ((Tick/Count))
system.mem_ctrl.dram.avgBusLat                5000.00                       # Average bus latency per DRAM burst ((Tick/Count))
system.mem_ctrl.dram.avgMemAccLat            29667.37                       # Average memory access latency per DRAM burst ((Tick/Count))
system.mem_ctrl.dram.readRowHits                 8110                       # Number of row buffer hits during reads (Count)
system.mem_ctrl.dram.writeRowHits                7517                       # Number of row buffer hits during writes (Count)
system.mem_ctrl.dram.readRowHitRate             89.46                       # Row buffer hit rate for reads (Ratio)
system.mem_ctrl.dram.writeRowHitRate            82.05                       # Row buffer hit rate for writes (Ratio)
system.mem_ctrl.dram.bytesPerActivate::samples         2591                       # Bytes accessed per row activation (Byte)
system.mem_ctrl.dram.bytesPerActivate::mean   450.124276                       # Bytes accessed per row activation (Byte)
system.mem_ctrl.dram.bytesPerActivate::gmean   276.680101                       # Bytes accessed per row activation (Byte)
system.mem_ctrl.dram.bytesPerActivate::stdev   383.788143                       # Bytes accessed per row activation (Byte)
system.mem_ctrl.dram.bytesPerActivate::0-127          619     23.89%     23.89% # Bytes accessed per row activation (Byte)
system.mem_ctrl.dram.bytesPerActivate::128-255          515     19.88%     43.77% # Bytes accessed per row activation (Byte)
system.mem_ctrl.dram.bytesPerActivate::256-383          292     11.27%     55.04% # Bytes accessed per row activation (Byte)
system.mem_ctrl.dram.bytesPerActivate::384-511          182      7.02%     62.06% # Bytes accessed per row activation (Byte)
system.mem_ctrl.dram.bytesPerActivate::512-639          117      4.52%     66.58% # Bytes accessed per row activation (Byte)
system.mem_ctrl.dram.bytesPerActivate::640-767          105      4.05%     70.63% # Bytes accessed per row activation (Byte)
system.mem_ctrl.dram.bytesPerActivate::768-895           72      2.78%     73.41% # Bytes accessed per row activation (Byte)
system.mem_ctrl.dram.bytesPerActivate::896-1023           74      2.86%     76.26% # Bytes accessed per row activation (Byte)
system.mem_ctrl.dram.bytesPerActivate::1024-1151          615     23.74%    100.00% # Bytes accessed per row activation (Byte)
system.mem_ctrl.dram.bytesPerActivate::total         2591                       # Bytes accessed per row activation (Byte)
system.mem_ctrl.dram.bytesRead                 580160                       # Total number of bytes read from DRAM (Byte)
system.mem_ctrl.dram.bytesWritten              586304                       # Total number of bytes written to DRAM (Byte)
system.mem_ctrl.dram.avgRdBW               771.468844                       # Average DRAM read bandwidth in MiBytes/s ((Byte/Second))
system.mem_ctrl.dram.avgWrBW               779.638839                       # Average DRAM write bandwidth in MiBytes/s ((Byte/Second))
system.mem_ctrl.dram.peakBW                  12800.00                       # Theoretical peak bandwidth in MiByte/s ((Byte/Second))
system.mem_ctrl.dram.busUtil                    12.12                       # Data bus utilization in percentage (Ratio)
system.mem_ctrl.dram.busUtilRead                 6.03                       # Data bus utilization in percentage for reads (Ratio)
system.mem_ctrl.dram.busUtilWrite                6.09                       # Data bus utilization in percentage for writes (Ratio)
system.mem_ctrl.dram.pageHitRate                85.74                       # Row buffer hit rate, read and write combined (Ratio)
system.mem_ctrl.dram.power_state.pwrStateResidencyTicks::UNDEFINED    752020000                       # Cumulative time (in ticks) in various power states (Tick)
system.mem_ctrl.dram.rank0.actEnergy          8925000                       # Energy for activate commands per rank (pJ) (Joule)
system.mem_ctrl.dram.rank0.preEnergy          4724775                       # Energy for precharge commands per rank (pJ) (Joule)
system.mem_ctrl.dram.rank0.readEnergy        32379900                       # Energy for read commands per rank (pJ) (Joule)
system.mem_ctrl.dram.rank0.writeEnergy       22900140                       # Energy for write commands per rank (pJ) (Joule)
system.mem_ctrl.dram.rank0.refreshEnergy 59005440.000000                       # Energy for refresh commands per rank (pJ) (Joule)
system.mem_ctrl.dram.rank0.actBackEnergy    300576390                       # Energy for active background per rank (pJ) (Joule)
system.mem_ctrl.dram.rank0.preBackEnergy     35658720                       # Energy for precharge background per rank (pJ) (Joule)
system.mem_ctrl.dram.rank0.actPowerDownEnergy            0                       # Energy for active power-down per rank (pJ) (Joule)
system.mem_ctrl.dram.rank0.prePowerDownEnergy            0                       # Energy for precharge power-down per rank (pJ) (Joule)
system.mem_ctrl.dram.rank0.selfRefreshEnergy            0                       # Energy for self refresh per rank (pJ) (Joule)
system.mem_ctrl.dram.rank0.totalEnergy      464170365                       # Total energy per rank (pJ) (Joule)
system.mem_ctrl.dram.rank0.averagePower    617.231410                       # Core power per rank (mW) (Watt)
system.mem_ctrl.dram.rank0.totalIdleTime            0                       # Total Idle time Per DRAM Rank (Tick)
system.mem_ctrl.dram.rank0.pwrStateTime::IDLE     89943000                       # Time in different power states (Tick)
system.mem_ctrl.dram.rank0.pwrStateTime::REF     24960000                       # Time in different power states (Tick)
system.mem_ctrl.dram.rank0.pwrStateTime::SREF            0                       # Time in different power states (Tick)
system.mem_ctrl.dram.rank0.pwrStateTime::PRE_PDN            0                       # Time in different power states (Tick)
system.mem_ctrl.dram.rank0.pwrStateTime::ACT    637117000                       # Time in different power states (Tick)
system.mem_ctrl.dram.rank0.pwrStateTime::ACT_PDN            0                       # Time in different power states (Tick)
system.mem_ctrl.dram.rank1.actEnergy          9631860                       # Energy for activate commands per rank (pJ) (Joule)
system.mem_ctrl.dram.rank1.preEnergy          5108070                       # Energy for precharge commands per rank (pJ) (Joule)
system.mem_ctrl.dram.rank1.readEnergy        32344200                       # Energy for read commands per rank (pJ) (Joule)
system.mem_ctrl.dram.rank1.writeEnergy       24920280                       # Energy for write commands per rank (pJ) (Joule)
system.mem_ctrl.dram.rank1.refreshEnergy 59005440.000000                       # Energy for refresh commands per rank (pJ) (Joule)
system.mem_ctrl.dram.rank1.actBackEnergy    297224220                       # Energy for active background per rank (pJ) (Joule)
system.mem_ctrl.dram.rank1.preBackEnergy     38481600                       # Energy for precharge background per rank (pJ) (Joule)
system.mem_ctrl.dram.rank1.actPowerDownEnergy            0                       # Energy for active power-down per rank (pJ) (Joule)
system.mem_ctrl.dram.rank1.prePowerDownEnergy            0                       # Energy for precharge power-down per rank (pJ) (Joule)
system.mem_ctrl.dram.rank1.selfRefreshEnergy            0                       # Energy for self refresh per rank (pJ) (Joule)
system.mem_ctrl.dram.rank1.totalEnergy      466715670                       # Total energy per rank (pJ) (Joule)
system.mem_ctrl.dram.rank1.averagePower    620.616034                       # Core power per rank (mW) (Watt)
system.mem_ctrl.dram.rank1.totalIdleTime            0                       # Total Idle time Per DRAM Rank (Tick)
system.mem_ctrl.dram.rank1.pwrStateTime::IDLE     97255750                       # Time in different power states (Tick)
system.mem_ctrl.dram.rank1.pwrStateTime::REF     24960000                       # Time in different power states (Tick)
system.mem_ctrl.dram.rank1.pwrStateTime::SREF            0                       # Time in different power states (Tick)
system.mem_ctrl.dram.rank1.pwrStateTime::PRE_PDN            0                       # Time in different power states (Tick)
system.mem_ctrl.dram.rank1.pwrStateTime::ACT    629804250                       # Time in different power states (Tick)
system.mem_ctrl.dram.rank1.pwrStateTime::ACT_PDN            0                       # Time in different power states (Tick)
system.mem_ctrl.power_state.pwrStateResidencyTicks::UNDEFINED    752020000                       # Cumulative time (in ticks) in various power states (Tick)
system.workload.inst.arm                            0                       # number of arm instructions executed (Count)
system.workload.inst.quiesce                        0                       # number of quiesce instructions executed (Count)

---------- End Simulation Statistics   ----------
